22   

C        1.8654135011   -1.0660897586   -0.1744318042
C        1.1522264525   -0.0843879673    0.5133809846
C        2.5628508862   -2.0384057257    0.5420545849
C        2.6657753660   -1.8148238849    6.3045493814
C        1.1394482465   -0.0730449816    1.9132880421
C        2.5495668153   -2.0259429949    1.9417599750
C        2.7295918291   -1.7829406733    4.9070282501
C        1.6636543303   -1.1135373058    6.9758557924
C        0.7918040888   -0.3553018307    4.8549481447
C        1.8458659547   -1.0347861920    2.6605102600
C        1.8023724922   -1.0437055815    4.1483916348
C        0.7214026374   -0.3824908748    6.2524945198
Cl      -0.5422104263    0.4823592809    7.0841135674
H        1.8746716885   -1.0752722440   -1.2607357785
H        0.6073069665    0.6756750481   -0.0392738151
H        3.1114739749   -2.8117638401    0.0120309755
H        3.3994022384   -2.3839479971    6.8686179567
H        0.5858658472    0.7243762989    2.3946061907
H        3.0826870685   -2.8219924076    2.4475004487
H        3.5384777157   -2.3277991312    4.4348709512
H        1.6101825408   -1.1359661688    8.0602777538
H        0.0182894790    0.2009921006    4.3405296936
22   

C        1.8817732945   -1.0657639970   -0.1571828315
C        1.2826806019   -0.0050987888    0.5261877373
C        2.4482654171   -2.1209098562    0.5616135758
C        2.7324616495   -1.6791332162    6.3070251303
C        1.2513589074    0.0003645067    1.9257567691
C        2.4167942249   -2.1137805213    1.9611909041
C        2.7884021354   -1.6678720082    4.9088814893
C        1.6576258880   -1.0792149728    6.9682457529
C        0.6999744607   -0.4606636087    4.8379387853
C        1.8215456537   -1.0507702391    2.6664203553
C        1.7750222552   -1.0547873246    4.1503950299
C        0.6368200854   -0.4682797131    6.2360807537
Cl      -0.7093923565    0.2722219967    7.0576376191
H        1.9054488250   -1.0707535991   -1.2432910259
H        0.8428577629    0.8184878261   -0.0290440412
H        2.9088863801   -2.9510079428    0.0336691999
H        3.5263895420   -2.1513818831    6.8787830109
H        0.7943854948    0.8456721821    2.4299463375
H        2.8443028513   -2.9573691097    2.4930411803
H        3.6417582058   -2.1249638361    4.4185093786
H        1.6096816913   -1.0859531091    8.0531313906
H       -0.1165379386   -0.0001430697    4.2926731440
22   

C        1.8897880326   -1.0596329207   -0.1503375924
C        1.4065567374    0.0545719633    0.5422192208
C        2.3239406478   -2.1843514038    0.5576556461
C        2.7969488720   -1.5620491391    6.2942062536
C        1.3560480750    0.0424516740    1.9411845361
C        2.2731600053   -2.1946587733    1.9567401376
C        2.8332146591   -1.5736498270    4.8954165028
C        1.6720144506   -1.0636578066    6.9590704410
C        0.6272954290   -0.5893277077    4.8319910623
C        1.7841173881   -1.0842979898    2.6639067469
C        1.7452959146   -1.0927938592    4.1473274417
C        0.5833040661   -0.5743109713    6.2308788835
Cl      -0.8177437143    0.0481557757    7.0584146538
H        1.9290459687   -1.0508616045   -1.2359678753
H        1.0731323760    0.9317502442   -0.0049420597
H        2.6992232058   -3.0516048989    0.0219512577
H        3.6434973228   -1.9361670406    6.8630874874
H        0.9914682879    0.9189964137    2.4683154674
H        2.6051225310   -3.0769486294    2.4955152965
H        3.7160034751   -1.9487880776    4.3863911892
H        1.6391589882   -1.0522550598    8.0444766736
H       -0.2259879003   -0.2151782444    4.2755083921
22   

C        1.8856290766   -1.0595692345   -0.1460377087
C        1.5406175345    0.1011605113    0.5541213075
C        2.1699711087   -2.2371647910    0.5534026509
C        2.8303646767   -1.4267498512    6.2874853392
C        1.4770951358    0.0822081567    1.9524893762
C        2.1059435354   -2.2540038837    1.9519679709
C        2.8579240961   -1.4524009743    4.8886683277
C        1.6604411836   -1.0480204467    6.9551466511
C        0.5543646204   -0.7193785842    4.8311528328
C        1.7495135613   -1.0986058406    2.6620860418
C        1.7150827967   -1.1100584424    4.1483505031
C        0.5185936350   -0.6907317675    6.2301415728
Cl      -0.9352233421   -0.2112176051    7.0617294704
H        1.9356173266   -1.0455965762   -1.2311718374
H        1.3253181582    1.0185158646    0.0136627987
H        2.4411987262   -3.1388254205    0.0117484058
H        3.7173673153   -1.6963665804    6.8538457011
H        1.2199177221    0.9881122219    2.4936298372
H        2.3278068192   -3.1698806827    2.4917920981
H        3.7693710715   -1.7340204271    4.3693836095
H        1.6340807180   -1.0255584937    8.0405557999
H       -0.3318891994   -0.4409205155    4.2696070541
22   

C        1.8868781293   -1.0679247415   -0.1450529408
C        1.7114084320    0.1298716189    0.5563531964
C        2.0050545130   -2.2746262347    0.5532679356
C        2.8667304795   -1.2676081077    6.2912661505
C        1.6518194828    0.1191497109    1.9550143484
C        1.9450550558   -2.2828098329    1.9521305402
C        2.9005042663   -1.2904607791    4.8925173744
C        1.6558380966   -1.0417352706    6.9557740390
C        0.5214067656   -0.8600952943    4.8288796146
C        1.7601612421   -1.0886231026    2.6611787249
C        1.7249479228   -1.0963011851    4.1517417739
C        0.4787524841   -0.8353020644    6.2278145777
Cl      -1.0266957035   -0.5468195773    7.0557075459
H        1.9336673922   -1.0606681057   -1.2303948240
H        1.6236661318    1.0685357204    0.0167293602
H        2.1443683495   -3.2053173493    0.0107188774
H        3.7794912790   -1.4220104166    6.8598276471
H        1.5225017041    1.0494892550    2.5004481900
H        2.0393441385   -3.2191920630    2.4942945877
H        3.8393015447   -1.4573407036    4.3722403723
H        1.6241542106   -1.0222378437    8.0410977816
H       -0.3898104584   -0.6969808901    4.2618175526
22   

C        1.8770475631   -1.0790290950   -0.1465643525
C        1.9016237864    0.1358288185    0.5471119615
C        1.8125643673   -2.2849798680    0.5601396442
C        2.8893632116   -1.0907735749    6.3028693073
C        1.8618624204    0.1430628137    1.9465281020
C        1.7729043901   -2.2749138804    1.9597074106
C        2.9384748042   -1.0969406571    4.9043882578
C        1.6527462333   -1.0437506260    6.9567087059
C        0.5233633275   -1.0093516798    4.8197192271
C        1.7974820640   -1.0625048667    2.6608618016
C        1.7546367197   -1.0562277842    4.1535174278
C        0.4647954284   -1.0028532397    6.2182965087
Cl      -1.0740685041   -0.9443517348    7.0328368105
H        1.9075191061   -1.0859042199   -1.2324888090
H        1.9510865928    1.0734274860    0.0008188216
H        1.7928030363   -3.2292925278    0.0236256755
H        3.8095818309   -1.1224349180    6.8794395548
H        1.8802449351    1.0852815367    2.4865289557
H        1.7222295115   -3.2105621762    2.5090050007
H        3.8954001570   -1.1333551272    4.3916877980
H        1.6087908038   -1.0387553890    8.0417682440
H       -0.3963963290   -0.9776985862    4.2438936536
22   

C        1.8730297538   -1.0909164569   -0.1472297334
C        2.0888613340    0.1088210754    0.5392719477
C        1.6241886699   -2.2680810126    0.5667787520
C        2.8687713175   -0.9165684440    6.3128432226
C        2.0583118205    0.1291716269    1.9387864214
C        1.5942195724   -2.2448975816    1.9663983261
C        2.9311753123   -0.9102793640    4.9149019638
C        1.6320433764   -1.0465407184    6.9548329099
C        0.5293716697   -1.1658424380    4.8070950368
C        1.8187629009   -1.0492129978    2.6618444988
C        1.7598458739   -1.0256666352    4.1515139173
C        0.4575640487   -1.1734182198    6.2050133884
Cl      -1.0810095217   -1.3420741448    7.0046068886
H        1.8956784325   -1.1078680298   -1.2332352457
H        2.2773323338    1.0251474628   -0.0128044220
H        1.4526506760   -3.2001118108    0.0358667256
H        3.7792007323   -0.8234473194    6.8982348721
H        2.2185641097    1.0616502233    2.4721004290
H        1.3980591452   -3.1584987418    2.5201414617
H        3.8896241760   -0.8171910711    4.4123534817
H        1.5778633323   -1.0526435311    8.0394239168
H       -0.3804252731   -1.2668504478    4.2234977792
22   

C        1.8693722895   -1.0924811955   -0.1504264025
C        2.2486193554    0.0630490548    0.5404289720
C        1.4552117949   -2.2245115062    0.5591851235
C        2.8387936679   -0.7581366552    6.3065432442
C        2.2164639975    0.0840298570    1.9398600882
C        1.4236741254   -2.2012766068    1.9587293953
C        2.8980574286   -0.7532402354    4.9084903479
C        1.6299333364   -1.0399239002    6.9522657025
C        0.5484447841   -1.3134635424    4.8079712913
C        1.8127546079   -1.0512419071    2.6610595672
C        1.7496278639   -1.0200745335    4.1461833151
C        0.4805131422   -1.3207010569    6.2060300884
Cl      -1.0228585408   -1.6787133699    7.0102466989
H        1.8933049483   -1.1096797972   -1.2364010310
H        2.5645919900    0.9455757474   -0.0084442785
H        1.1570304860   -3.1219817581    0.0247525588
H        3.7310335538   -0.5472800544    6.8893626205
H        2.5011404648    0.9860643041    2.4734733374
H        1.1013587772   -3.0826052123    2.5055637912
H        3.8385016159   -0.5460194371    4.4061711918
H        1.5786005089   -1.0456850902    8.0369975035
H       -0.3444851618   -1.5315923267    4.2305423966
22   

C        1.8714698130   -1.0859090484   -0.1512553092
C        2.3880000448    0.0067119010    0.5515144607
C        1.3147642665   -2.1618053156    0.5467454242
C        2.8069735757   -0.6236023651    6.3006282433
C        2.3490331427    0.0215750458    1.9508241655
C        1.2761233919   -2.1451462915    1.9461451901
C        2.8568930247   -0.6267729449    4.9022175546
C        1.6425380914   -1.0328714846    6.9583098524
C        0.5855646030   -1.4481425938    4.8249235405
C        1.7967097633   -1.0559966020    2.6642813309
C        1.7438329276   -1.0338390520    4.1472658351
C        0.5277206743   -1.4476926249    6.2233754955
Cl      -0.9228434904   -1.9585009999    7.0420191812
H        1.9012346132   -1.0982860876   -1.2371528118
H        2.8166196562    0.8462465733    0.0116819835
H        0.9132428311   -3.0123267145    0.0032493212
H        3.6731819174   -0.3070594363    6.8748336127
H        2.7412265764    0.8809523683    2.4861595168
H        0.8491529786   -2.9909983743    2.4765617509
H        3.7688378918   -0.3207594944    4.3983248917
H        1.5988186516   -1.0322994681    8.0433904847
H       -0.2880411811   -1.7632476662    4.2634504085
22   

C        1.9240231354   -1.0574334982   -0.1569309859
C        1.4077320718   -2.1643847764    0.5207305606
C        2.3712723348    0.0507873114    0.5661470943
C        0.6237512101   -1.7473963929    6.2200375281
C        1.3402876313   -2.1631384872    1.9190909397
C        2.3039003559    0.0506161965    1.9644162526
C        0.6905682263   -1.7505492517    4.8223177582
C        1.5760810737   -1.0456517224    6.9636238713
C        2.6567457873   -0.3549058646    4.9160471387
C        1.7917720734   -1.0585517889    2.6638525530
C        1.7058053476   -1.0507126246    4.1459949538
C        2.5968426485   -0.3472871514    6.3143285340
Cl       3.7912930120    0.5208790136    7.2390713747
H        1.9761752567   -1.0577274004   -1.2420563322
H        1.0610863871   -3.0289417792   -0.0381405515
H        2.7671274545    0.9163586499    0.0425990652
H       -0.1706363557   -2.2877295856    6.7272240731
H        0.9504670156   -3.0433279663    2.4196601208
H        2.6374360796    0.9341364896    2.4989606067
H       -0.0706774633   -2.2883834926    4.2666365815
H        1.5284388368   -1.0406442854    8.0485336004
H        3.4721119586    0.1759583165    4.4369662319
22   

C        1.9156420325   -1.0542963157   -0.1662576116
C        1.2709773038   -2.0915264504    0.5077697627
C        2.4950748209   -0.0158022374    0.5625104628
C        0.7185247916   -1.8558915224    6.2391497663
C        1.2098223391   -2.0926732371    1.9065387034
C        2.4335994336   -0.0179121250    1.9609020935
C        0.7809404749   -1.8549160517    4.8411146162
C        1.5880804788   -1.0544041635    6.9797541751
C        2.5811420859   -0.2583035298    4.9273791914
C        1.8001875817   -1.0645926496    2.6658985752
C        1.7043515320   -1.0469758786    4.1511526046
C        2.5246981687   -0.2539994157    6.3257401528
Cl       3.6247280482    0.7363857085    7.2451335226
H        1.9627797913   -1.0532297723   -1.2516170366
H        0.8175680162   -2.9025492806   -0.0549557166
H        2.9887217716    0.8006311605    0.0430810220
H       -0.0102988585   -2.4793372349    6.7494623195
H        0.7135405977   -2.9328585780    2.3769509765
H        2.8717558593    0.8285126616    2.4764718162
H        0.0704104969   -2.4803815814    4.3141089535
H        1.5429134798   -1.0524925043    8.0647838219
H        3.3463416300    0.3552184624    4.4682293766
22   

C        1.9066897439   -1.0512420647   -0.1814875692
C        1.1046496774   -1.9741638300    0.4866264886
C        2.6490889840   -0.1307510214    0.5549118229
C        0.8516739294   -1.9949098126    6.2463883529
C        1.0447041234   -1.9772421068    1.8855660477
C        2.5889504806   -0.1340584075    1.9532761459
C        0.9131400034   -1.9899804494    4.8482249835
C        1.5934333476   -1.0745799517    6.9849147092
C        2.4552891283   -0.1477294833    4.9289771461
C        1.7831880809   -1.0595884639    2.6581512216
C        1.7155819753   -1.0676806849    4.1487511403
C        2.3985610403   -0.1469638225    6.3273484702
Cl       3.3294169000    1.0075403797    7.2424803295
H        1.9528253507   -1.0493393366   -1.2668931057
H        0.5232280322   -2.6946606328   -0.0815955054
H        3.2768696980    0.5920529786    0.0415464106
H        0.2237883213   -2.7183099125    6.7590148424
H        0.3992692549   -2.7247019276    2.3263737700
H        3.1928555189    0.6098623357    2.4556234616
H        0.3093224529   -2.7342625151    4.3468612857
H        1.5479747223   -1.0756904187    8.0699381738
H        3.0998822079    0.5991728383    4.4867138048
22   

C        1.9088822185   -1.0314846816   -0.1735916798
C        0.9646771459   -1.8224473606    0.4811013125
C        2.7932630270   -0.2547487095    0.5746721235
C        0.9965256029   -2.1238571446    6.2350906219
C        0.9020282450   -1.8333067174    1.8797617453
C        2.7297197929   -0.2660498238    1.9729327899
C        1.0591569178   -2.1112358131    4.8371189776
C        1.5965056776   -1.1024134179    6.9724764187
C        2.3147980775   -0.0581858377    4.9167784961
C        1.7727584943   -1.0465709340    2.6575503920
C        1.7304121220   -1.0857127287    4.1448657394
C        2.2562155433   -0.0640204776    6.3150450631
Cl       2.9928630835    1.2234327612    7.2293841978
H        1.9577475042   -1.0234100493   -1.2588459021
H        0.2738193324   -2.4296642777   -0.0968289635
H        3.5382760315    0.3546374125    0.0710256093
H        0.4825449178   -2.9319182069    6.7480714702
H        0.1365862571   -2.4511877935    2.3334195272
H        3.4604070559    0.3305924349    2.5061852052
H        0.5938168380   -2.9380284328    4.3139983750
H        1.5498650182   -1.1085159974    8.0574286060
H        2.8100483983    0.7856820229    4.4526747762
22   

C        1.9067281527   -1.0300481509   -0.1593751723
C        0.8725302175   -1.7061619179    0.4920845320
C        2.8818015287   -0.3680552570    0.5902978551
C        1.1245249627   -2.1862752990    6.2345777076
C        0.8132419300   -1.7187954840    1.8907538739
C        2.8210970617   -0.3808825628    1.9888167741
C        1.1819078091   -2.1745217916    4.8364758645
C        1.6113068024   -1.0979216699    6.9631948110
C        2.2089671175    0.0081471336    4.8999775791
C        1.7828766061   -1.0524508686    2.6617666373
C        1.7291517812   -1.0788016672    4.1451978944
C        2.1547320171    0.0039521934    6.2984913281
Cl       2.7538827563    1.3665764415    7.2039530907
H        1.9534370112   -1.0203008447   -1.2447047003
H        0.1111685307   -2.2201819547   -0.0876329724
H        3.6915246215    0.1531486086    0.0875936389
H        0.7046357279   -3.0431317800    6.7539396690
H       -0.0107247554   -2.2375032054    2.3695900570
H        3.6046470351    0.1226400639    2.5456877460
H        0.8135460781   -3.0389467105    4.2936856766
H        1.5685477317   -1.1024607568    8.0483085218
H        2.6144635750    0.8850563438    4.4072688825
22   

C        1.9147967278   -1.0232919684   -0.1566819265
C        0.8042074729   -1.5818401842    0.4829401080
C        2.9588978483   -0.4877135958    0.6033753666
C        1.2366767574   -2.2518685109    6.2268470670
C        0.7396445688   -1.6059214805    1.8811715718
C        2.8925443002   -0.5121459090    2.0016228783
C        1.2895635568   -2.2390873059    4.8286056275
C        1.6090425644   -1.1140090607    6.9497171628
C        2.0866973745    0.0414987025    4.8814649631
C        1.7849248260   -1.0753860717    2.6565474456
C        1.7099504169   -1.0893605757    4.1386937575
C        2.0364508919    0.0366814721    6.2802088785
Cl       2.5013198866    1.4541935968    7.1800924195
H        1.9657346454   -1.0041147609   -1.2416934394
H       -0.0107554178   -1.9942033105   -0.1050610317
H        3.8232872541   -0.0536446029    0.1089984327
H        0.9102280756   -3.1460509876    6.7503913199
H       -0.1334134441   -2.0303968992    2.3675040095
H        3.7141782792   -0.1009443560    2.5803644633
H        1.0120433795   -3.1305853286    4.2741610253
H        1.5698463653   -1.1189198716    8.0349602449
H        2.4111727493    0.9424960207    4.3709271188
22   

C        1.9206552872   -1.0214201093   -0.1551123871
C        0.7461602778   -1.4430431695    0.4766871594
C        3.0222187584   -0.6281034462    0.6119887442
C        1.3713712464   -2.2834180910    6.2362282252
C        0.6758037405   -1.4740365758    1.8745322644
C        2.9496365470   -0.6597343513    2.0098392985
C        1.4162901045   -2.2798422720    4.8376390444
C        1.6161259671   -1.1020056054    6.9447884806
C        1.9521514049    0.0774602529    4.8619058932
C        1.7803512185   -1.0916433592    2.6528279085
C        1.6962753894   -1.0956750306    4.1372228300
C        1.9094713085    0.0825682961    6.2609740182
Cl       2.2213852272    1.5518282077    7.1436113148
H        1.9761495908   -0.9963397695   -1.2397782813
H       -0.1128369239   -1.7429606925   -0.1167159817
H        3.9342894124   -0.2971085735    0.1235705929
H        1.1506302916   -3.2030370999    6.7708367109
H       -0.2409625648   -1.7915388100    2.3625716314
H        3.8074264308   -0.3533904280    2.6014519134
H        1.2378721220   -3.1988159893    4.2868627826
H        1.5831730224   -1.0994135499    8.0302459926
H        2.1799657734    0.9976001793    4.3329719080
22   

C        1.9192447797   -1.0249295687   -0.1524258195
C        0.6987360653   -1.2834433580    0.4806393130
C        3.0676468900   -0.7966266654    0.6134059733
C        1.5297351908   -2.3117810949    6.2465354345
C        0.6289114095   -1.3160455670    1.8785134933
C        2.9949969065   -0.8298406857    2.0112569008
C        1.5732877159   -2.3113380562    4.8478669039
C        1.6226734567   -1.1039199247    6.9472274164
C        1.8045155804    0.0953264941    4.8563789355
C        1.7783251658   -1.0974185842    2.6530004908
C        1.7017855179   -1.1057792903    4.1420287539
C        1.7621395616    0.1042933229    6.2554915760
Cl       1.8846832828    1.6069844596    7.1283627511
H        1.9745734704   -0.9985638215   -1.2370695081
H       -0.1953899570   -1.4560996517   -0.1115530313
H        4.0156838233   -0.5920435984    0.1241758190
H        1.4267056333   -3.2484963532    6.7870782002
H       -0.3197872977   -1.5094691386    2.3706305469
H        3.8862510233   -0.6496068871    2.6053607716
H        1.5090690662   -3.2471148217    4.3001056427
H        1.5900376642   -1.0984921855    8.0326839574
H        1.9153683710    1.0314086744    4.3178803835
22   

C        1.9066783387   -1.0356907313   -0.1520775453
C        0.6687636590   -1.1029635017    0.4965345631
C        3.0863557768   -0.9889245542    0.5989535715
C        1.7064707604   -2.3235023772    6.2452077049
C        0.6122555796   -1.1235409782    1.8952476467
C        3.0269455909   -1.0096379121    1.9976995185
C        1.7616368403   -2.3127821488    4.8469766542
C        1.6219412974   -1.1165076133    6.9487184260
C        1.6479341842    0.1025515423    4.8614924597
C        1.7912002247   -1.0771869095    2.6538733323
C        1.7327031871   -1.0985959668    4.1458371986
C        1.5923064209    0.1013520316    6.2602018749
Cl       1.4870808807    1.6033678432    7.1364862863
H        1.9518029796   -1.0193156074   -1.2373897969
H       -0.2485465269   -1.1387930591   -0.0841815356
H        4.0485167235   -0.9360981722    0.0975348242
H        1.7292482327   -3.2671150821    6.7830871536
H       -0.3479404883   -1.1751178796    2.4002994308
H        3.9421799915   -0.9727440521    2.5814124756
H        1.8273113180   -3.2465225942    4.2958792899
H        1.5788646313   -1.1189558391    8.0338219060
H        1.6251474219    1.0456661040    4.3243209489
22   

C        1.8952324755   -1.0344696056   -0.1523768853
C        0.6718799468   -0.9046041851    0.5139933984
C        3.0785081371   -1.1722477277    0.5815539600
C        1.8839039042   -2.3111933115    6.2347644311
C        0.6335979653   -0.9101546355    1.9134280494
C        3.0377447454   -1.1774393062    1.9811241833
C        1.9557371563   -2.2794311863    4.8376350007
C        1.6203213227   -1.1350758588    6.9461784573
C        1.4988206399    0.0953943567    4.8689438587
C        1.8176335017   -1.0384836922    2.6556548496
C        1.7730643706   -1.0726723899    4.1455982304
C        1.4249473639    0.0724458477    6.2666171884
Cl       1.0895529499    1.5344815834    7.1525978382
H        1.9259870364   -1.0306985104   -1.2383089485
H       -0.2486064747   -0.8017770802   -0.0535576133
H        4.0289819398   -1.2762277401    0.0660523653
H        2.0295996629   -3.2478022095    6.7655874588
H       -0.3165060062   -0.8162806687    2.4313510499
H        3.9559466968   -1.2869483139    2.5508218250
H        2.1520457200   -3.1911142205    4.2807020319
H        1.5627560776   -1.1542755358    8.0304431060
H        1.3443968884    1.0303089076    4.3392565534
22   

C        1.8883713927   -1.0377375287   -0.1529711142
C        0.6997842056   -0.7362358638    0.5200114834
C        3.0439008107   -1.3412090152    0.5746698895
C        2.0399529918   -2.2666774381    6.2409710523
C        0.6688184309   -0.7352966724    1.9196055650
C        3.0108142650   -1.3397913054    1.9744113634
C        2.1151954163   -2.2309898005    4.8441296267
C        1.6241949504   -1.1318997340    6.9462051127
C        1.3576007142    0.0652590641    4.8632907131
C        1.8270618177   -1.0272932529    2.6580241702
C        1.7857186150   -1.0595287318    4.1437948490
C        1.2792668948    0.0377317249    6.2605668452
Cl       0.7536879318    1.4476918855    7.1385364213
H        1.9131375361   -1.0391709987   -1.2390627906
H       -0.2004644411   -0.5062254598   -0.0426947996
H        3.9671564681   -1.5787375156    0.0539747750
H        2.2998631640   -3.1754839990    6.7764608562
H       -0.2585044915   -0.5118470569    2.4390072601
H        3.9096766256   -1.5763617608    2.5361449709
H        2.4256374654   -3.1152306219    4.2950885932
H        1.5631922656   -1.1546499499    8.0302130865
H        1.0886967806    0.9730058345    4.3322493852
22   

C        1.8896469274   -1.0423686916   -0.1568815206
C        0.7456760640   -0.6023042092    0.5155980508
C        2.9934448578   -1.4960970246    0.5714594857
C        2.1733434100   -2.2324632689    6.2549064054
C        0.7071759389   -0.6144591702    1.9149359956
C        2.9530912248   -1.5080311923    1.9708806076
C        2.2346862575   -2.2058628176    4.8571913082
C        1.6387047104   -1.1435457797    6.9508946936
C        1.2273525061   -0.0092892698    4.8568203395
C        1.8123664720   -1.0628142956    2.6584295290
C        1.7677294487   -1.0902956136    4.1416390383
C        1.1625882434   -0.0282515819    6.2548446566
Cl       0.4950926791    1.3279313398    7.1211246874
H        1.9201862338   -1.0329613715   -1.2427874147
H       -0.1153123762   -0.2537860073   -0.0476383990
H        3.8837679735   -1.8378750971    0.0514059302
H        2.5370630578   -3.0998286279    6.7986136897
H       -0.1919229493   -0.2829276496    2.4256456113
H        3.8195272335   -1.8545560121    2.5259669485
H        2.6378717582   -3.0610559509    4.3231135704
H        1.5887099926   -1.1595025214    8.0355882084
H        0.8631084798    0.8642351733    4.3257496741
22   

C        1.8911892368   -1.0397780259   -0.1596800972
C        0.8004813518   -0.4813593778    0.5107393019
C        2.9272304207   -1.6258844745    0.5711020579
C        2.2884859683   -2.1603325720    6.2804747516
C        0.7459671063   -0.5101844849    1.9093087604
C        2.8710905475   -1.6545992865    1.9696329401
C        2.3269167383   -2.1565655716    4.8817038118
C        1.6532011646   -1.1209364619    6.9648802813
C        1.0986399721   -0.0795024350    4.8563783575
C        1.7773603220   -1.1009347000    2.6615884441
C        1.7289932977   -1.1180829508    4.1453811169
C        1.0564520113   -0.0760688991    6.2553312831
Cl       0.2718917363    1.2261991908    7.1063035086
H        1.9342156715   -1.0167691964   -1.2449623317
H       -0.0083695170   -0.0265126529   -0.0539701623
H        3.7804708819   -2.0549963303    0.0536080661
H        2.7496662970   -2.9731093316    6.8345092853
H       -0.1216729192   -0.0839243943    2.4023371059
H        3.7005317513   -2.0960132991    2.5122698969
H        2.8109266507   -2.9834462561    4.3721752163
H        1.6213067245   -1.1193370078    8.0503764470
H        0.6480327739    0.7548918697    4.3302411610
22   

C        1.8980546477   -1.0331289561   -0.1731793898
C        0.8839383796   -0.3551799103    0.5031449308
C        2.8495415692   -1.7490198439    0.5530046233
C        2.4093033168   -2.0737041869    6.2947489157
C        0.8195491796   -0.3959394278    1.9010808049
C        2.7840361825   -1.7892765291    1.9507152771
C        2.4309130914   -2.0844159633    4.8956159343
C        1.6731228216   -1.1039907002    6.9762151557
C        0.9868932051   -0.1583869687    4.8624002036
C        1.7593974203   -1.1220681199    2.6572113154
C        1.7116182910   -1.1353078037    4.1449256150
C        0.9605260646   -0.1411357397    6.2616279407
Cl       0.0522253223    1.0823487331    7.1068199257
H        1.9483934517   -1.0008391771   -1.2579142554
H        0.1398798854    0.2038813844   -0.0571119251
H        3.6478558879   -2.2703436372    0.0325136749
H        2.9640302205   -2.8234058830    6.8519826071
H       -0.0010178719    0.1319928541    2.3722055751
H        3.5657097932   -2.3344459185    2.4659454542
H        3.0013187911   -2.8699850017    4.4143485502
H        1.6540060513   -1.0917483705    8.0619489775
H        0.4427119087    0.6293889534    4.3567422042
22   

C        1.8784171857   -1.0458569611   -0.1862066303
C        1.0060271846   -0.2077082458    0.5047600923
C        2.7142781387   -1.9009917981    0.5282931355
C        2.5507678363   -1.9574362093    6.3014593365
C        0.9693463852   -0.2243208145    1.9043124404
C        2.6769274367   -1.9169263781    1.9274394233
C        2.5905390630   -1.9439128906    4.9026564373
C        1.6757431071   -1.1164500730    6.9865284095
C        0.8840314107   -0.2522162884    4.8756588387
C        1.8012636599   -1.0769674580    2.6562394865
C        1.7601218999   -1.0926428854    4.1478339143
C        0.8386673889   -0.2601985310    6.2744908942
Cl      -0.2587672311    0.7949710769    7.1225291424
H        1.9065146331   -1.0326063379   -1.2721484269
H        0.3512007872    0.4618654350   -0.0456729940
H        3.3973493876   -2.5576184858   -0.0030176337
H        3.2037849967   -2.6253843304    6.8561989574
H        0.2653820439    0.4556820520    2.3649123724
H        3.3550120791   -2.6070209014    2.4112649920
H        3.2944073292   -2.6238054788    4.4415912736
H        1.6420115752   -1.1241000385    8.0719522420
H        0.2064463570    0.4373913819    4.3918091150
