22   

C        1.8654035218   -1.0660975696   -0.1744315810
C        1.1522225216   -0.0843911587    0.5133809713
C        2.5628375081   -2.0384158608    0.5420550376
C        2.6657756296   -1.8148235931    6.3045493904
C        1.1394482465   -0.0730449816    1.9132880421
C        2.5495570634   -2.0259501089    1.9417604351
C        2.7295918291   -1.7829406733    4.9070282501
C        1.6636548923   -1.1135365285    6.9758557819
C        0.7918046676   -0.3553010075    4.8549481018
C        1.8458659547   -1.0347861920    2.6605102600
C        1.8023724922   -1.0437055815    4.1483916348
C        0.7214033967   -0.3824898006    6.2524944977
Cl      -0.5422092112    0.4823610057    7.0841135594
H        1.8746590286   -1.0752822620   -1.2607355580
H        0.6073046148    0.6756728446   -0.0392740263
H        3.1114549308   -2.8117781366    0.0120316368
H        3.3994024320   -2.3839477971    6.8686179643
H        0.5858700282    0.7243791640    2.3946063101
H        3.0826733985   -2.8220016048    2.4475018631
H        3.5384773232   -2.3277991776    4.4348701989
H        1.6101832143   -1.1359651857    8.0602777519
H        0.0182903446    0.2009931895    4.3405294711
22   

C        1.8817572678   -1.0657737387   -0.1571827459
C        1.2826741953   -0.0051028697    0.5261876016
C        2.4482441737   -2.1209223076    0.5616139178
C        2.7324622412   -1.6791324000    6.3070251452
C        1.2513589074    0.0003645067    1.9257567691
C        2.4167789228   -2.1137891690    1.9611913622
C        2.7884021354   -1.6678720082    4.9088814893
C        1.6576270954   -1.0792130429    6.9682457922
C        0.6999754065   -0.4606619866    4.8379388050
C        1.8215456537   -1.0507702391    2.6664203553
C        1.7750222552   -1.0547873246    4.1503950299
C        0.6368215018   -0.4682773599    6.2360808087
Cl      -0.7093900833    0.2722258105    7.0576377574
H        1.9054284451   -1.0707661233   -1.2432910234
H        0.8428536876    0.8184847920   -0.0290444750
H        2.9088562837   -2.9510254005    0.0336696887
H        3.5263900195   -2.1513813174    6.8787829743
H        0.7943918456    0.8456755603    2.4299464750
H        2.8442822270   -2.9573797942    2.4930427793
H        3.6417572288   -2.1249647653    4.4185084297
H        1.6096832349   -1.0859505848    8.0531314488
H       -0.1165366085   -0.0001408623    4.2926730581
22   

C        1.8897677413   -1.0596420712   -0.1503380064
C        1.4065485627    0.0545680970    0.5422188874
C        2.3239139407   -2.1843630748    0.5576552875
C        2.7969492951   -1.5620484494    6.2942062485
C        1.3560480750    0.0424516740    1.9411845361
C        2.2731409460   -2.1946669223    1.9567400861
C        2.8332146591   -1.5736498270    4.8954165028
C        1.6720153217   -1.0636561127    6.9590704529
C        0.6272961364   -0.5893261902    4.8319910801
C        1.7841173881   -1.0842979898    2.6639067469
C        1.7452959146   -1.0927938592    4.1473274417
C        0.5833051156   -0.5743088077    6.2308789153
Cl      -0.8177420209    0.0481593183    7.0584147377
H        1.9290200927   -1.0508733868   -1.2359685133
H        1.0731270217    0.9317473018   -0.0049426320
H        2.6991853879   -3.0516212599    0.0219507079
H        3.6434976489   -1.9361666500    6.8630874326
H        0.9914761882    0.9189995691    2.4683157062
H        2.6050971266   -3.0769588186    2.4955158494
H        3.7160027584   -1.9487890105    4.3863905864
H        1.6391600833   -1.0522529034    8.0444766871
H       -0.2259869375   -0.2151761838    4.2755083694
22   

C        1.8856084094   -1.0595753658   -0.1460384444
C        1.5406091761    0.1011579018    0.5541208923
C        2.1699439487   -2.2371726256    0.5534017854
C        2.8303648580   -1.4267494004    6.2874853294
C        1.4770951358    0.0822081567    1.9524893762
C        2.1059241920   -2.2540094156    1.9519674932
C        2.8579240961   -1.4524009743    4.8886683277
C        1.6604415549   -1.0480194008    6.9551466400
C        0.5543649303   -0.7193776657    4.8311528268
C        1.7495135613   -1.0986058406    2.6620860418
C        1.7150827967   -1.1100584424    4.1483505031
C        0.5185940805   -0.6907304620    6.2301415640
Cl      -0.9352226363   -0.2112155130    7.0617294629
H        1.9355909557   -1.0456044677   -1.2311728582
H        1.3253126135    1.0185138449    0.0136622633
H        2.4411602763   -3.1388363959    0.0117471173
H        3.7173674683   -1.6963662677    6.8538456689
H        1.2199257394    0.9881143346    2.4936301181
H        2.3277810619   -3.1698877230    2.4917917056
H        3.7693707813   -1.7340209975    4.3693833991
H        1.6340811912   -1.0255571585    8.0405557842
H       -0.3318887660   -0.4409192589    4.2696070151
22   

C        1.8868638550   -1.0679266444   -0.1450534775
C        1.7114026133    0.1298708067    0.5563529445
C        2.0050358295   -2.2746286780    0.5532672541
C        2.8667304929   -1.2676080054    6.2912661501
C        1.6518194828    0.1191497109    1.9550143484
C        1.9450417971   -2.2828115811    1.9521301031
C        2.9005042663   -1.2904607791    4.8925173744
C        1.6558381349   -1.0417349981    6.9557740277
C        0.5214068062   -0.8600950421    4.8288795962
C        1.7601612421   -1.0886231026    2.6611787249
C        1.7249479228   -1.0963011851    4.1517417739
C        0.4787525403   -0.8353017070    6.2278145570
Cl      -1.0266956023   -0.5468189902    7.0557075186
H        1.9336491546   -1.0606705404   -1.2303955357
H        1.6236621719    1.0685350851    0.0167291139
H        2.1443418965   -3.2053207689    0.0107178747
H        3.7794912779   -1.4220103861    6.8598276531
H        1.5225072113    1.0494899022    2.5004483932
H        2.0393264956   -3.2191943107    2.4942940493
H        3.8393014956   -1.4573408824    4.3722403415
H        1.6241542525   -1.0222374972    8.0410977699
H       -0.3898103809   -0.6969805269    4.2618174983
22   

C        1.8770476195   -1.0790290915   -0.1465643552
C        1.9016238193    0.1358288173    0.5471119632
C        1.8125644375   -2.2849798622    0.5601396465
C        2.8893632179   -1.0907735711    6.3028693043
C        1.8618624204    0.1430628137    1.9465281020
C        1.7729044425   -2.2749138826    1.9597074121
C        2.9384748042   -1.0969406571    4.9043882578
C        1.6527462443   -1.0437506162    6.9567087079
C        0.5233633319   -1.0093516707    4.8197192275
C        1.7974820640   -1.0625048667    2.6608618016
C        1.7546367197   -1.0562277842    4.1535174278
C        0.4647954370   -1.0028532208    6.2182965105
Cl      -1.0740684930   -0.9443516757    7.0328368092
H        1.9075191709   -1.0859042138   -1.2324888137
H        1.9510866321    1.0734274855    0.0008188285
H        1.7928031392   -3.2292925182    0.0236256754
H        3.8095818426   -1.1224349150    6.8794395407
H        1.8802449340    1.0852815357    2.4865289575
H        1.7222295969   -3.2105621867    2.5090049963
H        3.8954001532   -1.1333551238    4.3916877906
H        1.6087908276   -1.0387553749    8.0417682471
H       -0.3963963203   -0.9776985800    4.2438936464
22   

C        1.8730437667   -1.0909193693   -0.1472292897
C        2.0888670341    0.1088198492    0.5392720912
C        1.6242070016   -2.2680847648    0.5667793541
C        2.8687713108   -0.9165686322    6.3128432203
C        2.0583118205    0.1291716269    1.9387864214
C        1.5942325659   -2.2449002485    1.9663988000
C        2.9311753123   -0.9102793640    4.9149019638
C        1.6320433689   -1.0465411350    6.9548328658
C        0.5293717052   -1.1658428304    4.8070949598
C        1.8187629009   -1.0492129978    2.6618444988
C        1.7598458739   -1.0256666352    4.1515139173
C        0.4575640668   -1.1734187513    6.2050133125
Cl      -1.0810094852   -1.3420750060    7.0046067805
H        1.8956963565   -1.1078717703   -1.2332347082
H        2.2773361930    1.0251465368   -0.0128044094
H        1.4526766374   -3.2001170887    0.0358675410
H        3.7792007081   -0.8234474744    6.8982348964
H        2.2185587053    1.0616512533    2.4721002542
H        1.3980764273   -3.1585022038    2.5201421412
H        3.8896241545   -0.8171908983    4.4123534694
H        1.5778633044   -1.0526440668    8.0394238706
H       -0.3804251774   -1.2668510294    4.2234976397
22   

C        1.8693924198   -1.0924886982   -0.1504255595
C        2.2486275055    0.0630458980    0.5404292071
C        1.4552382541   -2.2245211645    0.5591863159
C        2.8387936552   -0.7581372837    6.3065432422
C        2.2164639975    0.0840298570    1.9398600882
C        1.4236929513   -2.2012834351    1.9587303733
C        2.8980574286   -0.7532402354    4.9084903479
C        1.6299334551   -1.0399255141    6.9522655588
C        0.5484451244   -1.3134651451    4.8079710133
C        1.8127546079   -1.0512419071    2.6610595672
C        1.7496278639   -1.0200745335    4.1461833151
C        0.4805134677   -1.3207032736    6.2060298116
Cl      -1.0228579159   -1.6787171621    7.0102462710
H        1.8933306405   -1.1096894334   -1.2364000317
H        2.5645974199    0.9455733715   -0.0084443575
H        1.1570679931   -3.1219953394    0.0247541768
H        3.7310334143   -0.5472804087    6.8893627143
H        2.5011326623    0.9860669562    2.4734730246
H        1.1013838698   -3.0826139831    2.5055653382
H        3.8385014743   -0.5460187693    4.4061711957
H        1.5786006003   -1.0456871249    8.0369973570
H       -0.3444844300   -1.5315946857    4.2305417867
22   

C        1.8714893817   -1.0859194988   -0.1512542960
C        2.3880079422    0.0067075248    0.5515147233
C        1.3147900853   -2.1618187658    0.5467469187
C        2.8069735630   -0.6236033744    6.3006282482
C        2.3490331427    0.0215750458    1.9508241655
C        1.2761418766   -2.1451557610    1.9461464399
C        2.8568930247   -0.6267729449    4.9022175546
C        1.6425383719   -1.0328739325    6.9583095743
C        0.5855653060   -1.4481449148    4.8249230145
C        1.7967097633   -1.0559966020    2.6642813309
C        1.7438329276   -1.0338390520    4.1472658351
C        0.5277213638   -1.4476958699    6.2233749687
Cl      -0.9228421861   -1.9585064381    7.0420183593
H        1.9012595344   -1.0982995000   -1.2371516184
H        2.8166248537    0.8462433201    0.0116818462
H        0.9132793892   -3.0123456030    0.0032513946
H        3.6731816454   -0.3070601404    6.8748338356
H        2.7412189212    0.8809560560    2.4861592273
H        0.8491776851   -2.9910103924    2.4765639800
H        3.7688375735   -0.3207585163    4.3983248961
H        1.5988189135   -1.0323025967    8.0433902058
H       -0.2880396389   -1.7632510473    4.2634491277
22   

C        1.9240060164   -1.0574253561   -0.1569314892
C        1.4077252207   -2.1643813860    0.5207302250
C        2.3712496987    0.0507977276    0.5661466203
C        0.6237511016   -1.7473954780    6.2200375234
C        1.3402876313   -2.1631384872    1.9190909397
C        2.3038841064    0.0506234253    1.9644160908
C        0.6905682263   -1.7505492517    4.8223177582
C        1.5760804737   -1.0456495957    6.9636234645
C        2.6567447371   -0.3549039516    4.9160464025
C        1.7917720734   -1.0585517889    2.6638525530
C        1.7058053476   -1.0507126246    4.1459949538
C        2.5968414915   -0.3472844067    6.3143277867
Cl       3.7912908784    0.5208835634    7.2390701859
H        1.9761534511   -1.0577169157   -1.2420570632
H        1.0610819830   -3.0289392733   -0.0381410366
H        2.7670953959    0.9163732575    0.0425983980
H       -0.1706361238   -2.2877288803    6.7272243793
H        0.9504737279   -3.0433307133    2.4196605727
H        2.6374142417    0.9341453999    2.4989612325
H       -0.0706768720   -2.2883843160    4.2666365367
H        1.5284381787   -1.0406415659    8.0485331877
H        3.4721098410    0.1759609382    4.4369643525
22   

C        1.9156316246   -1.0542896497   -0.1662578328
C        1.2709732057   -2.0915237312    0.5077695792
C        2.4950607986   -0.0157935579    0.5625103118
C        0.7185248077   -1.8558910155    6.2391497728
C        1.2098223391   -2.0926732371    1.9065387034
C        2.4335891566   -0.0179060169    1.9609020976
C        0.7809404749   -1.8549160517    4.8411146162
C        1.5880803839   -1.0544031717    6.9797538846
C        2.5811418399   -0.2583029490    4.9273786624
C        1.8001875817   -1.0645926496    2.6658985752
C        1.7043515320   -1.0469758786    4.1511526046
C        2.5246979313   -0.2539983774    6.3257396148
Cl       3.6247275934    0.7363872899    7.2451326476
H        1.9627666412   -1.0532212414   -1.2516173766
H        0.8175655835   -2.9025474111   -0.0549560212
H        2.9887018474    0.8006433928    0.0430808455
H       -0.0102987167   -2.4793366751    6.7494625691
H        0.7135449589   -2.9328609841    2.3769513488
H        2.8717415034    0.8285205079    2.4764725341
H        0.0704107287   -2.4803817872    4.3141088382
H        1.5429133978   -1.0524911687    8.0647835311
H        3.3463410997    0.3552188104    4.4682279383
22   

C        1.9066897737   -1.0512420715   -0.1814875690
C        1.1046496836   -1.9741638226    0.4866264864
C        2.6490890142   -0.1307510328    0.5549118302
C        0.8516739644   -1.9949098155    6.2463883573
C        1.0447041234   -1.9772421068    1.8855660477
C        2.5889504979   -0.1340584154    1.9532761509
C        0.9131400034   -1.9899804494    4.8482249835
C        1.5934333779   -1.0745799363    6.9849147036
C        2.4552891325   -0.1477294765    4.9289771326
C        1.7831880809   -1.0595884639    2.6581512216
C        1.7155819753   -1.0676806849    4.1487511403
C        2.3985610445   -0.1469637954    6.3273484531
Cl       3.3294168722    1.0075404482    7.2424802920
H        1.9528254008   -1.0493393436   -1.2668931054
H        0.5232280104   -2.6946605999   -0.0815955111
H        3.2768697376    0.5920529625    0.0415464239
H        0.2237883887   -2.7183099279    6.7590148628
H        0.3992692291   -2.7247019004    2.3263737775
H        3.1928555371    0.6098623326    2.4556234630
H        0.3093224584   -2.7342625201    4.3468612871
H        1.5479747695   -1.0756903998    8.0699381692
H        3.0998822117    0.5991728404    4.4867137815
22   

C        1.9088909369   -1.0314942699   -0.1735911478
C        0.9646806925   -1.8224511633    0.4811014451
C        2.7932743497   -0.2547614970    0.5746729616
C        0.9965260852   -2.1238570660    6.2350906449
C        0.9020282450   -1.8333067174    1.8797617453
C        2.7297277444   -0.2660591041    1.9729335057
C        1.0591569178   -2.1112358131    4.8371189776
C        1.5965066988   -1.1024134047    6.9724761832
C        2.3147987266   -0.0581860123    4.9167780140
C        1.7727584943   -1.0465709340    2.6575503920
C        1.7304121220   -1.0857127287    4.1448657394
C        2.2562166500   -0.0640205949    6.3150446002
Cl       2.9928647782    1.2234324837    7.2293834710
H        1.9577586826   -1.0234222343   -1.2588452784
H        0.2738217469   -2.4296666015   -0.0968290272
H        3.5382920257    0.3546192154    0.0710268162
H        0.4825453959   -2.9319179867    6.7480717115
H        0.1365830047   -2.4511837466    2.3334196241
H        3.4604173979    0.3305794345    2.5061868986
H        0.5938165981   -2.9380282218    4.3139982076
H        1.5498663939   -1.1085159482    8.0574283865
H        2.8100489166    0.7856814888    4.4526733721
22   

C        1.9067389987   -1.0300633601   -0.1593745196
C        0.8725346909   -1.7061679854    0.4920846646
C        2.8818155651   -0.3680754875    0.5902988892
C        1.1245258906   -2.1862752507    6.2345777544
C        0.8132419300   -1.7187954840    1.8907538739
C        2.8211069202   -0.3808971729    1.9888176831
C        1.1819078091   -2.1745217916    4.8364758645
C        1.6113090445   -1.0979219125    6.9631945322
C        2.2089691862    0.0081464208    4.8999769759
C        1.7828766061   -1.0524508686    2.6617666373
C        1.7291517812   -1.0788016672    4.1451978944
C        2.1547349411    0.0039515188    6.2984907573
Cl       2.7538876158    1.3665751256    7.2039521957
H        1.9534509168   -1.0203201665   -1.2447039545
H        0.1111717279   -2.2201857940   -0.0876331413
H        3.6915443664    0.1531199179    0.0875950950
H        0.7046363571   -3.0431314123    6.7539400079
H       -0.0107285990   -2.2374971399    2.3695900705
H        3.6046594737    0.1226202924    2.5456897686
H        0.8135451610   -3.0389462804    4.2936855817
H        1.5685506099   -1.1024609639    8.0483082680
H        2.6144665248    0.8850546867    4.4072672122
22   

C        1.9148074671   -1.0233116703   -0.1566814104
C        0.8042119650   -1.5818481136    0.4829401771
C        2.9589116498   -0.4877395462    0.6033761869
C        1.2366777533   -2.2518684870    6.2268471087
C        0.7396445688   -1.6059214805    1.8811715718
C        2.8925539826   -0.5121644360    2.0016236378
C        1.2895635568   -2.2390873059    4.8286056275
C        1.6090449942   -1.1140092950    6.9497169576
C        2.0866997392    0.0414980407    4.8814644921
C        1.7849248260   -1.0753860717    2.6565474456
C        1.7099504169   -1.0893605757    4.1386937575
C        2.0364541489    0.0366808464    6.2802084399
Cl       2.5013253421    1.4541924071    7.1800917311
H        1.9657484550   -1.0041398958   -1.2416928764
H       -0.0107520833   -1.9942085082   -0.1050612762
H        3.8233066475   -0.0536813606    0.1089995438
H        0.9102287264   -3.1460507087    6.7503915819
H       -0.1334172375   -2.0303892174    2.3675039292
H        3.7141905434   -0.1009691101    2.5803660121
H        1.0120423795   -3.1305850180    4.2741610139
H        1.5698494378   -1.1189200708    8.0349600623
H        2.4111762452    0.9424945520    4.3709258973
22   

C        1.9206629751   -1.0214402193   -0.1551121844
C        0.7461635010   -1.4430512967    0.4766871465
C        3.0222286658   -0.6281298670    0.6119890825
C        1.3713718820   -2.2834180674    6.2362282458
C        0.6758037405   -1.4740365758    1.8745322644
C        2.9496435579   -0.6597531469    2.0098396669
C        1.4162901045   -2.2798422720    4.8376390444
C        1.6161275856   -1.1020056950    6.9447883840
C        1.9521530076    0.0774599436    4.8619056553
C        1.7803512185   -1.0916433592    2.6528279085
C        1.6962753894   -1.0956750306    4.1372228300
C        1.9094735092    0.0825680204    6.2609738043
Cl       2.2213889183    1.5518276848    7.1436109861
H        1.9761594665   -0.9963654408   -1.2397780967
H       -0.1128345273   -1.7429660692   -0.1167161908
H        3.9343033449   -0.2971460024    0.1235709935
H        1.1506306593   -3.2030369545    6.7708368310
H       -0.2409653048   -1.7915309878    2.3625715819
H        3.8074354438   -0.3534154743    2.6014526226
H        1.2378714632   -3.1988158600    4.2868627742
H        1.5831750743   -1.0994136165    8.0302459095
H        2.1799681213    0.9975994968    4.3329713343
22   

C        1.9192477725   -1.0249433499   -0.1524259030
C        0.6987373157   -1.2834489439    0.4806392476
C        3.0676507708   -0.7966447575    0.6134058777
C        1.5297353991   -2.3117810821    6.2465354387
C        0.6289114095   -1.3160455670    1.8785134933
C        2.9949996782   -0.8298535485    2.0112568785
C        1.5732877159   -2.3113380562    4.8478669039
C        1.6226739488   -1.1039199155    6.9472273967
C        1.8045160327    0.0953264593    4.8563788740
C        1.7783251658   -1.0974185842    2.6530004908
C        1.7017855179   -1.1057792903    4.1420287539
C        1.7621401813    0.1042933067    6.2554915243
Cl       1.8846842501    1.6069844278    7.1283626745
H        1.9745772987   -0.9985813968   -1.2370696419
H       -0.1953890331   -1.4561033757   -0.1115531473
H        4.0156892792   -0.5920691931    0.1241756393
H        1.4267057668   -3.2484963228    6.7870782186
H       -0.3197883640   -1.5094638377    2.3706305771
H        3.8862546308   -0.6496239901    2.6053607799
H        1.5090688203   -3.2471147954    4.3001056235
H        1.5900382939   -1.0984921642    8.0326839424
H        1.9153690427    1.0314085784    4.3178802603
22   

C        1.9066783132   -1.0356908853   -0.1520775594
C        0.6687636410   -1.1029635807    0.4965345635
C        3.0863557580   -0.9889247254    0.5989535493
C        1.7064707277   -2.3235023836    6.2452077067
C        0.6122555796   -1.1235409782    1.8952476467
C        3.0269455898   -1.0096380200    1.9976995016
C        1.7616368403   -2.3127821488    4.8469766542
C        1.6219412428   -1.1165076178    6.9487184250
C        1.6479341558    0.1025515437    4.8614924570
C        1.7912002247   -1.0771869095    2.6538733323
C        1.7327031871   -1.0985959668    4.1458371986
C        1.5923063672    0.1013520290    6.2602018740
Cl       1.4870807895    1.6033678359    7.1364862937
H        1.9518029385   -1.0193158231   -1.2373898126
H       -0.2485465509   -1.1387931511   -0.0841815246
H        4.0485166991   -0.9360984240    0.0975347843
H        1.7292481821   -3.2671150895    6.7830871603
H       -0.3479404866   -1.1751178245    2.4002994397
H        3.9421800015   -0.9727442059    2.5814124458
H        1.8273113287   -3.2465225931    4.2958792893
H        1.5788645560   -1.1189558368    8.0338219048
H        1.6251473831    1.0456661030    4.3243209392
22   

C        1.8952342844   -1.0344553343   -0.1523766654
C        0.6718807396   -0.9045983570    0.5139934409
C        3.0785104173   -1.1722290648    0.5815542778
C        1.8839035943   -2.3111933805    6.2347644134
C        0.6335979653   -0.9101546355    1.9134280494
C        3.0377463597   -1.1774260503    1.9811244607
C        1.9557371563   -2.2794311863    4.8376350007
C        1.6203206449   -1.1350760035    6.9461784270
C        1.4988201844    0.0953942659    4.8689438425
C        1.8176335017   -1.0384836922    2.6556548496
C        1.7730643706   -1.0726723899    4.1455982304
C        1.4249465982    0.0724456906    6.2666171567
Cl       1.0895516325    1.5344813098    7.1525977890
H        1.9259893750   -1.0306802633   -1.2383087006
H       -0.2486058125   -0.8017731044   -0.0535576930
H        4.0289851268   -1.2762013064    0.0660527863
H        2.0295993848   -3.2478022778    6.7655874338
H       -0.3165066018   -0.8162861713    2.4313509560
H        3.9559487487   -1.2869306412    2.5508222468
H        2.1520460141   -3.1911141420    4.2807020074
H        1.5627551510   -1.1542757396    8.0304430622
H        1.3443962761    1.0303087843    4.3392565173
22   

C        1.8883772995   -1.0377165642   -0.1529707284
C        0.6997867149   -0.7362273644    0.5200115375
C        3.0439083630   -1.3411815371    0.5746704753
C        2.0399526606   -2.2666775827    6.2409710272
C        0.6688184309   -0.7352966724    1.9196055650
C        3.0108195979   -1.3397717928    1.9744119138
C        2.1151954163   -2.2309898005    4.8441296267
C        1.6241940963   -1.1319000479    6.9462050572
C        1.3575998775    0.0652587729    4.8632906611
C        1.8270618177   -1.0272932529    2.6580241702
C        1.7857186150   -1.0595287318    4.1437948490
C        1.2792657425    0.0377313213    6.2605667756
Cl       0.7536860248    1.4476912275    7.1385363098
H        1.9131451408   -1.0391442032   -1.2390623741
H       -0.2004625007   -0.5062197694   -0.0426949862
H        3.9671670522   -1.5786986043    0.0539755248
H        2.2998630287   -3.1754840922    6.7764608238
H       -0.2585065241   -0.5118551672    2.4390071281
H        3.9096834061   -1.5763358178    2.5361459195
H        2.4256379871   -3.1152303300    4.2950884080
H        1.5631912065   -1.1546503332    8.0302130169
H        1.0886956373    0.9730054238    4.3322492799
22   

C        1.8896558231   -1.0423482416   -0.1568807149
C        0.7456798312   -0.6022959398    0.5155982267
C        2.9934561973   -1.4960701467    0.5714607082
C        2.1733427496   -2.2324636785    6.2549063584
C        0.7071759389   -0.6144591702    1.9149359956
C        2.9530991388   -1.5080120357    1.9708816726
C        2.2346862575   -2.2058628176    4.8571913082
C        1.6387031045   -1.1435466236    6.9508946130
C        1.2273510774   -0.0092899564    4.8568202766
C        1.8123664720   -1.0628142956    2.6584295290
C        1.7677294487   -1.0902956136    4.1416390383
C        1.1625862113   -0.0282525930    6.2548445699
Cl       0.4950893765    1.3279297232    7.1211245680
H        1.9201976862   -1.0329352894   -1.2427864882
H       -0.1153094924   -0.2537805253   -0.0476385964
H        3.8837838685   -1.8378370360    0.0514076047
H        2.5370626681   -3.0998289440    6.7986136083
H       -0.1919260144   -0.2829355967    2.4256453967
H        3.8195371075   -1.8545305133    2.5259689451
H        2.6378726684   -3.0610552131    4.3231130308
H        1.5887079425   -1.1595035927    8.0355881036
H        0.8631065470    0.8642342445    4.3257495450
22   

C        1.8911988061   -1.0397619720   -0.1596789653
C        0.8004853719   -0.4813529731    0.5107395831
C        2.9272426258   -1.6258631750    0.5711037768
C        2.2884853271   -2.1603330916    6.2804747164
C        0.7459671063   -0.5101844849    1.9093087604
C        2.8710989981   -1.6545839472    1.9696343789
C        2.3269167383   -2.1565655716    4.8817038118
C        1.6531994595   -1.1209375890    6.9648802116
C        1.0986383687   -0.0795033948    4.8563782855
C        1.7773603220   -1.1009347000    2.6615884441
C        1.7289932977   -1.1180829508    4.1453811169
C        1.0564497495   -0.0760703105    6.2553312051
Cl       0.2718879467    1.2261968614    7.1063034229
H        1.9342279874   -1.0167487992   -1.2449609984
H       -0.0083665069   -0.0265085978   -0.0539703279
H        3.7804879846   -2.0549661663    0.0536105129
H        2.7496660136   -2.9731096799    6.8345092052
H       -0.1216762158   -0.0839307495    2.4023368449
H        3.7005421244   -2.0959926803    2.5122727817
H        2.8109275583   -2.9834452528    4.3721743399
H        1.6213045659   -1.1193384214    8.0503763659
H        0.6480305523    0.7548905115    4.3302409569
22   

C        1.8980622806   -1.0331189223   -0.1731785068
C        0.8839414889   -0.3551759494    0.5031451900
C        2.8495515044   -1.7490063927    0.5530059392
C        2.4093029919   -2.0737045300    6.2947488982
C        0.8195491796   -0.3959394278    1.9010808049
C        2.7840431708   -1.7892667286    1.9507163551
C        2.4309130914   -2.0844159633    4.8956159343
C        1.6731219008   -1.1039914549    6.9762151075
C        0.9868922812   -0.1583876536    4.8624001405
C        1.7593974203   -1.1220681199    2.6572113154
C        1.7116182910   -1.1353078037    4.1449256150
C        0.9605247979   -0.1411367151    6.2616278869
Cl       0.0522232062    1.0823471140    7.1068198916
H        1.9484032199   -1.0008264554   -1.2579131938
H        0.1398820060    0.2038837627   -0.0571119387
H        3.6478699077   -2.2703244866    0.0325155493
H        2.9640300469   -2.8234061335    6.8519825669
H       -0.0010206882    0.1319886538    2.3722054343
H        3.5657188099   -2.3344322063    2.4659476996
H        3.0013189310   -2.8699845216    4.4143478022
H        1.6540048667   -1.0917493116    8.0619489253
H        0.4427106841    0.6293879721    4.3567419705
22   

C        1.8784171735   -1.0458569805   -0.1862066314
C        1.0060271793   -0.2077082561    0.5047600912
C        2.7142781248   -1.9009918171    0.5282931371
C        2.5507678333   -1.9574362174    6.3014593351
C        0.9693463852   -0.2243208145    1.9043124404
C        2.6769274284   -1.9169263880    1.9274394243
C        2.5905390630   -1.9439128906    4.9026564373
C        1.6757430987   -1.1164500880    6.9865284085
C        0.8840314049   -0.2522162962    4.8756588389
C        1.8012636599   -1.0769674580    2.6562394865
C        1.7601218999   -1.0926428854    4.1478339143
C        0.8386673786   -0.2601985472    6.2744908947
Cl      -0.2587672514    0.7949710476    7.1225291444
H        1.9065146156   -1.0326063640   -1.2721484274
H        0.3512007834    0.4618654212   -0.0456729996
H        3.3973493670   -2.5576185121   -0.0030176311
H        3.2037849937   -2.6253843413    6.8561989506
H        0.2653820490    0.4556820593    2.3649123697
H        3.3550120662   -2.6070209162    2.4112649932
H        3.2944073330   -2.6238054744    4.4415912731
H        1.6420115649   -1.1241000596    8.0719522415
H        0.2064463471    0.4373913702    4.3918091147
