22   

C        1.8654136790   -1.0660896167   -0.1744318118
C        1.1522265359   -0.0843878963    0.5133809838
C        2.5628510814   -2.0384055723    0.5420545735
C        2.6657753631   -1.8148239277    6.3045493804
C        1.1394482465   -0.0730449816    1.9132880421
C        2.5495669360   -2.0259429058    1.9417599649
C        2.7295918291   -1.7829406733    4.9070282501
C        1.6636543218   -1.1135373699    6.9758558027
C        0.7918041231   -0.3553017962    4.8549481662
C        1.8458659547   -1.0347861920    2.6605102600
C        1.8023724922   -1.0437055815    4.1483916348
C        0.7214026559   -0.3824908905    6.2524945422
Cl      -0.5422104102    0.4823592463    7.0841136099
H        1.8746719321   -1.0752720511   -1.2607357853
H        0.6073070489    0.6756751220   -0.0392738104
H        3.1114742479   -2.8117636250    0.0120309537
H        3.3994022244   -2.3839480651    6.8686179463
H        0.5858657816    0.7243762525    2.3946061905
H        3.0826872271   -2.8219923027    2.4475004207
H        3.5384777193   -2.3277991225    4.4348709489
H        1.6101825126   -1.1359662900    8.0602777611
H        0.0182895315    0.2009921788    4.3405297363
22   

C        1.8817736128   -1.0657638370   -0.1571828249
C        1.2826807222   -0.0050987341    0.5261877364
C        2.4482658356   -2.1209096376    0.5616135870
C        2.7324616839   -1.6791331338    6.3070251345
C        1.2513589074    0.0003645067    1.9257567691
C        2.4167945108   -2.1137803663    1.9611909108
C        2.7884021354   -1.6678720082    4.9088814893
C        1.6576258938   -1.0792149253    6.9682457470
C        0.6999744118   -0.4606636871    4.8379387713
C        1.8215456537   -1.0507702391    2.6664203553
C        1.7750222552   -1.0547873246    4.1503950299
C        0.6368200317   -0.4682797815    6.2360807381
Cl      -0.7093924762    0.2722218157    7.0576375955
H        1.9054492252   -1.0707534000   -1.2432910169
H        0.8428578279    0.8184878407   -0.0290440580
H        2.9088869780   -2.9510076307    0.0336692211
H        3.5263896351   -2.1513816884    6.8787830260
H        0.7943853779    0.8456721204    2.4299463349
H        2.8443032379   -2.9573689035    2.4930411829
H        3.6417582332   -2.1249638037    4.4185093983
H        1.6096817147   -1.0859529978    8.0531313858
H       -0.1165380166   -0.0001432214    4.2926731130
22   

C        1.8897884972   -1.0596327034   -0.1503375868
C        1.4065569208    0.0545720555    0.5422192262
C        2.3239412934   -2.1843511161    0.5576556482
C        2.7969488618   -1.5620491853    6.2942062529
C        1.3560480750    0.0424516740    1.9411845361
C        2.2731604935   -2.1946585624    1.9567401349
C        2.8332146591   -1.5736498270    4.8954165028
C        1.6720144091   -1.0636579359    6.9590704452
C        0.6272953723   -0.5893278408    4.8319910695
C        1.7841173881   -1.0842979898    2.6639067469
C        1.7452959146   -1.0927938592    4.1473274417
C        0.5833039965   -0.5743111543    6.2308788935
Cl      -0.8177438259    0.0481554727    7.0584146826
H        1.9290465381   -1.0508613332   -1.2359678653
H        1.0731324777    0.9317503039   -0.0049420572
H        2.6992241238   -3.0516044919    0.0219512576
H        3.6434973281   -1.9361670622    6.8630874814
H        0.9914681013    0.9189963324    2.4683154734
H        2.6051231966   -3.0769483596    2.4955152791
H        3.7160034996   -1.9487880136    4.3863911857
H        1.6391589379   -1.0522552155    8.0444766780
H       -0.2259879779   -0.2151784177    4.2755084042
22   

C        1.8856297991   -1.0595690730   -0.1460376687
C        1.5406178166    0.1011605625    0.5541213173
C        2.1699721163   -2.2371645439    0.5534027147
C        2.8303646356   -1.4267499815    6.2874853390
C        1.4770951358    0.0822081567    1.9524893762
C        2.1059442852   -2.2540036811    1.9519680156
C        2.8579240961   -1.4524009743    4.8886683277
C        1.6604410856   -1.0480207532    6.9551466500
C        0.5543645341   -0.7193788504    4.8311528348
C        1.7495135613   -1.0986058406    2.6620860418
C        1.7150827967   -1.1100584424    4.1483505031
C        0.5185935089   -0.6907321549    6.2301415764
Cl      -0.9352235451   -0.2112182360    7.0617294827
H        1.9356182219   -1.0455963890   -1.2311717882
H        1.3253183187    1.0185158731    0.0136627860
H        2.4412001637   -3.1388250677    0.0117485099
H        3.7173672800   -1.6963666846    6.8538457027
H        1.2199174364    0.9881121522    2.4936298179
H        2.3278078403   -3.1698804020    2.4917921644
H        3.7693711149   -1.7340202955    4.3693836145
H        1.6340805941   -1.0255588875    8.0405557976
H       -0.3318893022   -0.4409208367    4.2696070581
22   

C        1.8868789143   -1.0679246349   -0.1450529151
C        1.7114087437    0.1298716632    0.5563532080
C        2.0050555377   -2.2746261008    0.5532679664
C        2.8667304274   -1.2676082937    6.2912661502
C        1.6518194828    0.1191497109    1.9550143484
C        1.9450557589   -2.2828097391    1.9521305601
C        2.9005042663   -1.2904607791    4.8925173744
C        1.6558379854   -1.0417357125    6.9557740210
C        0.5214066855   -0.8600956710    4.8288795858
C        1.7601612421   -1.0886231026    2.6611787249
C        1.7249479228   -1.0963011851    4.1517417739
C        0.4787523584   -0.8353026194    6.2278145481
Cl      -1.0266959012   -0.5468204881    7.0557075043
H        1.9336683964   -1.0606679628   -1.2303947905
H        1.6236663206    1.0685357518    0.0167293699
H        2.1443698102   -3.2053171604    0.0107189255
H        3.7794912267   -1.4220105640    6.8598276603
H        1.5225014086    1.0494892183    2.5004481824
H        2.0393450432   -3.2191919437    2.4942946149
H        3.8393015749   -1.4573405398    4.3722403741
H        1.6241540585   -1.0222384169    8.0410977633
H       -0.3898105377   -0.6969813850    4.2618174888
22   

C        1.8770475663   -1.0790291003   -0.1465643520
C        1.9016237921    0.1358288133    0.5471119615
C        1.8125643650   -2.2849798709    0.5601396495
C        2.8893632082   -1.0907735467    6.3028693075
C        1.8618624204    0.1430628137    1.9465281020
C        1.7729043883   -2.2749138823    1.9597074152
C        2.9384748042   -1.0969406571    4.9043882578
C        1.6527462253   -1.0437506114    6.9567087025
C        0.5233633277   -1.0093516886    4.8197192251
C        1.7974820640   -1.0625048667    2.6608618016
C        1.7546367197   -1.0562277842    4.1535174278
C        0.4647954194   -1.0028532548    6.2182965044
Cl      -1.0740685225   -0.9443517847    7.0328367984
H        1.9075191134   -1.0859042280   -1.2324888085
H        1.9510866079    1.0734274776    0.0008188195
H        1.7928030308   -3.2292925291    0.0236256824
H        3.8095818268   -1.1224348640    6.8794395572
H        1.8802449375    1.0852815369    2.4865289552
H        1.7222295080   -3.2105621788    2.5090050064
H        3.8954001570   -1.1333551242    4.3916877979
H        1.6087907911   -1.0387553586    8.0417682392
H       -0.3963963241   -0.9776986115    4.2438936440
22   

C        1.8730290270   -1.0909163269   -0.1472297492
C        2.0888610233    0.1088211274    0.5392719382
C        1.6241877174   -2.2680808345    0.5667787357
C        2.8687713026   -0.9165682369    6.3128432222
C        2.0583118205    0.1291716269    1.9387864214
C        1.5942188894   -2.2448974463    1.9663983138
C        2.9311753123   -0.9102793640    4.9149019638
C        1.6320433344   -1.0465402354    6.9548329122
C        0.5293716232   -1.1658420082    4.8070950426
C        1.8187629009   -1.0492129978    2.6618444988
C        1.7598458739   -1.0256666352    4.1515139173
C        0.4575639902   -1.1734176137    6.2050133941
Cl      -1.0810096197   -1.3420731614    7.0046068973
H        1.8956775064   -1.1078678683   -1.2332352660
H        2.2773320856    1.0251474983   -0.0128044384
H        1.4526493307   -3.2001115600    0.0358667082
H        3.7792007239   -0.8234471609    6.8982348691
H        2.2185643951    1.0616501715    2.4721004338
H        1.3980582276   -3.1584985566    2.5201414499
H        3.8896241893   -0.8171912408    4.4123534758
H        1.5778632790   -1.0526428957    8.0394239193
H       -0.3804253428   -1.2668498683    4.2234977941
22   

C        1.8693712690   -1.0924808308   -0.1504264371
C        2.2486189273    0.0630492101    0.5404289587
C        1.4552105102   -2.2245110500    0.5591850793
C        2.8387936323   -0.7581364232    6.3065432440
C        2.2164639975    0.0840298570    1.9398600882
C        1.4236732388   -2.2012762871    1.9587293591
C        2.8980574286   -0.7532402354    4.9084903479
C        1.6299332494   -1.0399234180    6.9522657135
C        0.5484446994   -1.3134631782    4.8079713071
C        1.8127546079   -1.0512419071    2.6610595672
C        1.7496278639   -1.0200745335    4.1461833151
C        0.4805130306   -1.3207004945    6.2060301055
Cl      -1.0228587254   -1.6787124511    7.0102467319
H        1.8933036160   -1.1096793222   -1.2364010731
H        2.5645916566    0.9455758707   -0.0084442914
H        1.1570286834   -3.1219811232    0.0247525021
H        3.7310335213   -0.5472798041    6.8893626099
H        2.5011408556    0.9860641672    2.4734733602
H        1.1013576025   -3.0826047963    2.5055637417
H        3.8385016384   -0.5460195930    4.4061711697
H        1.5786003914   -1.0456844452    8.0369975153
H       -0.3444852827   -1.5315918812    4.2305424351
22   

C        1.8714690594   -1.0859086506   -0.1512553485
C        2.3879997407    0.0067120659    0.5515144496
C        1.3147633315   -2.1618048322    0.5467453716
C        2.8069735647   -0.6236023069    6.3006282400
C        2.3490331427    0.0215750458    1.9508241655
C        1.2761227810   -2.1451459777    1.9461451498
C        2.8568930247   -0.6267729449    4.9022175546
C        1.6425380380   -1.0328712954    6.9583098558
C        0.5855645420   -1.4481424161    4.8249235520
C        1.7967097633   -1.0559966020    2.6642813309
C        1.7438329276   -1.0338390520    4.1472658351
C        0.5277205992   -1.4476923731    6.2233755049
Cl      -0.9228436168   -1.9585005674    7.0420192092
H        1.9012336163   -1.0982855494   -1.2371528596
H        2.8166194434    0.8462466984    0.0116819830
H        0.9132414848   -3.0123260246    0.0032492483
H        3.6731819367   -0.3070594540    6.8748336004
H        2.7412268565    0.8809522335    2.4861595271
H        0.8491521913   -2.9909979848    2.4765616880
H        3.7688379216   -0.3207595853    4.3983248907
H        1.5988185778   -1.0322992092    8.0433904854
H       -0.2880412677   -1.7632474458    4.2634504388
22   

C        1.9240234275   -1.0574336649   -0.1569309888
C        1.4077322108   -2.1643848616    0.5207305689
C        2.3712727169    0.0507871139    0.5661470877
C        0.6237511978   -1.7473964084    6.2200375257
C        1.3402876313   -2.1631384872    1.9190909397
C        2.3039006474    0.0506160635    1.9644162460
C        0.6905682263   -1.7505492517    4.8223177582
C        1.5760810527   -1.0456517462    6.9636238795
C        2.6567457856   -0.3549058769    4.9160471592
C        1.7917720734   -1.0585517889    2.6638525530
C        1.7058053476   -1.0507126246    4.1459949538
C        2.5968426343   -0.3472871740    6.3143285541
Cl       3.7912930092    0.5208789595    7.2390714130
H        1.9761756093   -1.0577276136   -1.2420563352
H        1.0610865088   -3.0289418746   -0.0381405190
H        2.7671279828    0.9163583803    0.0425990503
H       -0.1706363777   -2.2877295977    6.7272240631
H        0.9504668979   -3.0433279146    2.4196601188
H        2.6374364863    0.9341363262    2.4989605833
H       -0.0706774612   -2.2883834918    4.2666365786
H        1.5284388024   -1.0406443231    8.0485336077
H        3.4721119698    0.1759583062    4.4369662782
22   

C        1.9156424243   -1.0542965097   -0.1662575891
C        1.2709774791   -2.0915265298    0.5077697649
C        2.4950752383   -0.0158024545    0.5625104918
C        0.7185247133   -1.8558914090    6.2391497671
C        1.2098223391   -2.0926732371    1.9065387034
C        2.4335996557   -0.0179122468    1.9609021061
C        0.7809404749   -1.8549160517    4.8411146162
C        1.5880803066   -1.0544039394    6.9797541668
C        2.5811419873   -0.2583034150    4.9273791885
C        1.8001875817   -1.0645926496    2.6658985752
C        1.7043515320   -1.0469758786    4.1511526046
C        2.5246979848   -0.2539991856    6.3257401405
Cl       3.6247277314    0.7363861118    7.2451334855
H        1.9627803462   -1.0532300315   -1.2516170073
H        0.8175681755   -2.9025493407   -0.0549557305
H        2.9887223737    0.8006308542    0.0430810828
H       -0.0102989282   -2.4793371152    6.7494623411
H        0.7135404608   -2.9328585057    2.3769509588
H        2.8717561320    0.8285125265    2.4764718055
H        0.0704105429   -2.4803816595    4.3141089857
H        1.5429132400   -1.0524921967    8.0647838103
H        3.3463415304    0.3552185884    4.4682293912
22   

C        1.9066897859   -1.0512421224   -0.1814875674
C        1.1046496908   -1.9741638607    0.4866264924
C        2.6490890330   -0.1307510776    0.5549118197
C        0.8516739152   -1.9949097844    6.2463883515
C        1.0447041234   -1.9772421068    1.8855660477
C        2.5889505107   -0.1340584333    1.9532761426
C        0.9131400034   -1.9899804494    4.8482249835
C        1.5934332909   -1.0745798781    6.9849147001
C        2.4552890902   -0.1477294455    4.9289771335
C        1.7831880809   -1.0595884639    2.6581512216
C        1.7155819753   -1.0676806849    4.1487511403
C        2.3985609661   -0.1469637390    6.3273484529
Cl       3.3294167501    1.0075405429    7.2424802895
H        1.9528254072   -1.0493394199   -1.2668931023
H        0.5232280368   -2.6946606668   -0.0815954903
H        3.2768697707    0.5920528995    0.0415464030
H        0.2237883254   -2.7183098948    6.7590148444
H        0.3992692370   -2.7247019022    2.3263737843
H        3.1928555670    0.6098623031    2.4556234496
H        0.3093224853   -2.7342625332    4.3468612758
H        1.5479746404   -1.0756903175    8.0699381631
H        3.0998821546    0.5991728820    4.4867137813
22   

C        1.9088821250   -1.0314846420   -0.1735916982
C        0.9646770931   -1.8224473440    0.4811013141
C        2.7932629194   -0.2547486436    0.5746720889
C        0.9965257777   -2.1238572870    6.2350906243
C        0.9020282450   -1.8333067174    1.8797617453
C        2.7297197135   -0.2660497495    1.9729327602
C        1.0591569178   -2.1112358131    4.8371189776
C        1.5965060655   -1.1024137145    6.9724764469
C        2.3147982906   -0.0581859800    4.9167785308
C        1.7727584943   -1.0465709340    2.6575503920
C        1.7304121220   -1.0857127287    4.1448657394
C        2.2562159595   -0.0640207811    6.3150451110
Cl       2.9928638209    1.2234322255    7.2293843076
H        1.9577473788   -1.0234100012   -1.2588459215
H        0.2738192687   -2.4296642659   -0.0968289424
H        3.5382758894    0.3546374943    0.0710255437
H        0.4825450952   -2.9319183608    6.7480714571
H        0.1365862869   -2.4511878220    2.3334195356
H        3.4604069515    0.3305925604    2.5061851474
H        0.5938167281   -2.9380283646    4.3139983679
H        1.5498655587   -1.1085164243    8.0574286405
H        2.8100486562    0.7856818717    4.4526748419
22   

C        1.9067278730   -1.0300477913   -0.1593751977
C        0.8725300960   -1.7061617723    0.4920845288
C        2.8818011984   -0.3680548088    0.5902978141
C        1.1245248914   -2.1862752783    6.2345777045
C        0.8132419300   -1.7187954840    1.8907538739
C        2.8210968531   -0.3808822631    1.9888167417
C        1.1819078091   -2.1745217916    4.8364758645
C        1.6113066410   -1.0979216144    6.9631948121
C        2.2089670188    0.0081471769    4.8999775894
C        1.7828766061   -1.0524508686    2.6617666373
C        1.7291517812   -1.0788016672    4.1451978944
C        2.1547318387    0.0039522627    6.2984913373
Cl       2.7538824271    1.3665765708    7.2039531130
H        1.9534366410   -1.0203003871   -1.2447047303
H        0.1111684303   -2.2201818572   -0.0876329590
H        3.6915241662    0.1531492291    0.0875935745
H        0.7046356606   -3.0431317646    6.7539396621
H       -0.0107246639   -2.2375033468    2.3695900601
H        3.6046467907    0.1226404491    2.5456876844
H        0.8135461202   -3.0389467308    4.2936856808
H        1.5685474961   -1.1024606801    8.0483085197
H        2.6144634384    0.8850564157    4.4072689101
22   

C        1.9147964727   -1.0232915307   -0.1566819416
C        0.8042073687   -1.5818400210    0.4829401060
C        2.9588975075   -0.4877129742    0.6033753393
C        1.2366766074   -2.2518684424    6.2268470644
C        0.7396445688   -1.6059214805    1.8811715718
C        2.8925440498   -0.5121454366    2.0016228545
C        1.2895635568   -2.2390873059    4.8286056275
C        1.6090422735   -1.1140089312    6.9497171451
C        2.0866971976    0.0414987734    4.8814649480
C        1.7849248260   -1.0753860717    2.6565474456
C        1.7099504169   -1.0893605757    4.1386937575
C        2.0364506080    0.0366815940    6.2802088559
Cl       2.5013194697    1.4541937752    7.1800923818
H        1.9657343203   -1.0041142300   -1.2416934561
H       -0.0107554794   -1.9942032407   -0.1050610288
H        3.8232867731   -0.0536437172    0.1089983924
H        0.9102279082   -3.1460509076    6.7503913265
H       -0.1334133500   -2.0303970870    2.3675040141
H        3.7141779559   -0.1009437121    2.5803644209
H        1.0120434774   -3.1305853662    4.2741610367
H        1.5698459470   -1.1189196741    8.0349602223
H        2.4111725447    0.9424960996    4.3709270998
22   

C        1.9206549240   -1.0214192017   -0.1551123980
C        0.7461601184   -1.4430427948    0.4766871626
C        3.0222183073   -0.6281022780    0.6119887251
C        1.3713710775   -2.2834180458    6.2362282209
C        0.6758037405   -1.4740365758    1.8745322644
C        2.9496362366   -0.6597335320    2.0098392801
C        1.4162901045   -2.2798422720    4.8376390444
C        1.6161255542   -1.1020054975    6.9447884610
C        1.9521509816    0.0774603552    4.8619058753
C        1.7803512185   -1.0916433592    2.6528279085
C        1.6962753894   -1.0956750306    4.1372228300
C        1.9094707352    0.0825684401    6.2609739932
Cl       2.2213842502    1.5518284504    7.1436112736
H        1.9761491122   -0.9963385980   -1.2397782916
H       -0.1128370593   -1.7429604198   -0.1167159615
H        3.9342887802   -0.2971069223    0.1235705653
H        1.1506301812   -3.2030370642    6.7708367154
H       -0.2409624441   -1.7915391445    2.3625716404
H        3.8074260336   -0.3533893424    2.6014518831
H        1.2378723013   -3.1988160309    4.2868627940
H        1.5831725120   -1.0994134068    8.0302459685
H        2.1799651809    0.9976003164    4.3329718790
22   

C        1.9192445534   -1.0249287486   -0.1524258324
C        0.6987359550   -1.2834430146    0.4806393187
C        3.0676466303   -0.7966256341    0.6134059472
C        1.5297350117   -2.3117810840    6.2465354277
C        0.6289114095   -1.3160455670    1.8785134933
C        2.9949967409   -0.8298399696    2.0112568774
C        1.5732877159   -2.3113380562    4.8478669039
C        1.6226729868   -1.1039198871    6.9472274018
C        1.8045151432    0.0953265367    4.8563789277
C        1.7783251658   -1.0974185842    2.6530004908
C        1.7017855179   -1.1057792903    4.1420287539
C        1.7621389413    0.1042933781    6.2554915629
Cl       1.8846822507    1.6069845527    7.1283627341
H        1.9745731570   -0.9985627325   -1.2370695184
H       -0.1953900665   -1.4560993904   -0.1115530031
H        4.0156834577   -0.5920421214    0.1241757738
H        1.4267055320   -3.2484963530    6.7870781914
H       -0.3197872217   -1.5094694797    2.3706305593
H        3.8862508185   -0.6496059171    2.6053607284
H        1.5090692415   -3.2471148318    4.3001056394
H        1.5900370526   -1.0984921327    8.0326839377
H        1.9153677749    1.0314087348    4.3178803773
22   

C        1.9066783415   -1.0356907683   -0.1520775466
C        0.6687636620   -1.1029635252    0.4965345633
C        3.0863557792   -0.9889245950    0.5989535715
C        1.7064706749   -2.3235023849    6.2452076981
C        0.6122555796   -1.1235409782    1.8952476467
C        3.0269455933   -1.0096379379    1.9976995188
C        1.7616368403   -2.3127821488    4.8469766542
C        1.6219411266   -1.1165076235    6.9487184114
C        1.6479340740    0.1025515373    4.8614924540
C        1.7912002247   -1.0771869095    2.6538733323
C        1.7327031871   -1.0985959668    4.1458371986
C        1.5923062283    0.1013520235    6.2602018659
Cl       1.4870805278    1.6033678306    7.1364862751
H        1.9518029845   -1.0193156718   -1.2373897986
H       -0.2485465214   -1.1387931023   -0.0841815369
H        4.0485167293   -0.9360982512    0.0975348251
H        1.7292481324   -3.2671150899    6.7830871478
H       -0.3479404901   -1.1751178497    2.4002994306
H        3.9421799940   -0.9727441017    2.5814124792
H        1.8273113591   -3.2465225915    4.2958792903
H        1.5788643946   -1.1189558539    8.0338218864
H        1.6251472716    1.0456660926    4.3243209363
22   

C        1.8952323722   -1.0344704691   -0.1523768965
C        0.6718799024   -0.9046045394    0.5139933955
C        3.0785080061   -1.1722488277    0.5815539455
C        1.8839040017   -2.3111932919    6.2347644357
C        0.6335979653   -0.9101546355    1.9134280494
C        3.0377446560   -1.1774400536    1.9811241711
C        1.9557371563   -2.2794311863    4.8376350007
C        1.6203215648   -1.1350758156    6.9461784746
C        1.4988209161    0.0953944118    4.8689438796
C        1.8176335017   -1.0384836922    2.6556548496
C        1.7730643706   -1.0726723899    4.1455982304
C        1.4249477128    0.0724459131    6.2666172154
Cl       1.0895535005    1.5344816807    7.1525978909
H        1.9259868975   -1.0306996496   -1.2383089616
H       -0.2486065111   -0.8017773516   -0.0535576130
H        4.0289817553   -1.2762293135    0.0660523459
H        2.0295997211   -3.2478021973    6.7655874601
H       -0.3165059739   -0.8162803614    2.4313510534
H        3.9559465821   -1.2869492894    2.5508218094
H        2.1520456158   -3.1911142405    4.2807020278
H        1.5627563604   -1.1542754896    8.0304431250
H        1.3443972589    1.0303089847    4.3392565867
22   

C        1.8883711366   -1.0377384218   -0.1529711316
C        0.6997840948   -0.7362362267    0.5200114806
C        3.0439004873   -1.3412101810    0.5746698621
C        2.0399531337   -2.2666773738    6.2409710629
C        0.6688184309   -0.7352966724    1.9196055650
C        3.0108140394   -1.3397921275    1.9744113388
C        2.1151954163   -2.2309898005    4.8441296267
C        1.6241953354   -1.1318995812    6.9462051267
C        1.3576010692    0.0652591913    4.8632907186
C        1.8270618177   -1.0272932529    2.6580241702
C        1.7857186150   -1.0595287318    4.1437948490
C        1.2792674096    0.0377319163    6.2605668601
Cl       0.7536887970    1.4476921984    7.1385364500
H        1.9131372048   -1.0391721409   -1.2390628095
H       -0.2004645255   -0.5062256939   -0.0426947932
H        3.9671560090   -1.5787391876    0.0539747382
H        2.2998632367   -3.1754839491    6.7764608762
H       -0.2585044026   -0.5118467087    2.4390072689
H        3.9096763347   -1.5763628701    2.5361449298
H        2.4256373021   -3.1152306825    4.2950885987
H        1.5631927554   -1.1546497480    8.0302131074
H        1.0886972503    0.9730059896    4.3322493822
22   

C        1.8896466741   -1.0423692997   -0.1568815450
C        0.7456759677   -0.6023044435    0.5155980452
C        2.9934445210   -1.4960978386    0.5714594500
C        2.1733434116   -2.2324632468    6.2549064053
C        0.7071759389   -0.6144591702    1.9149359956
C        2.9530909868   -1.5080317638    1.9708805761
C        2.2346862575   -2.2058628176    4.8571913082
C        1.6387048335   -1.1435456971    6.9508946949
C        1.2273527115   -0.0092891723    4.8568203419
C        1.8123664720   -1.0628142956    2.6584295290
C        1.7677294487   -1.0902956136    4.1416390383
C        1.1625885076   -0.0282514433    6.2548446574
Cl       0.4950931899    1.3279315999    7.1211246821
H        1.9201859107   -1.0329621441   -1.2427874417
H       -0.1153124307   -0.2537861417   -0.0476384011
H        3.8837674972   -1.8378762497    0.0514058814
H        2.5370629719   -3.0998286366    6.7986136914
H       -0.1919228536   -0.2829274104    2.4256456244
H        3.8195269424   -1.8545567489    2.5259668912
H        2.6378716865   -3.0610559925    4.3231135841
H        1.5887101196   -1.1595024254    8.0355882089
H        0.8631087837    0.8642353136    4.3257496824
22   

C        1.8911892387   -1.0397781117   -0.1596800792
C        0.8004813691   -0.4813593994    0.5107393016
C        2.9272303667   -1.6258846505    0.5711020863
C        2.2884860167   -2.1603325561    6.2804747497
C        0.7459671063   -0.5101844849    1.9093087604
C        2.8710904688   -1.6545994602    1.9696329591
C        2.3269167383   -2.1565655716    4.8817038118
C        1.6532012035   -1.1209364537    6.9648802812
C        1.0986399506   -0.0795024494    4.8563783594
C        1.7773603220   -1.1009347000    2.6615884441
C        1.7289932977   -1.1180829508    4.1453811169
C        1.0564519890   -0.0760689200    6.2553312847
Cl       0.2718916220    1.2261991199    7.1063035067
H        1.9342157082   -1.0167692647   -1.2449623101
H       -0.0083694612   -0.0265126159   -0.0539701728
H        3.7804708153   -2.0549965675    0.0536081238
H        2.7496663940   -2.9731092971    6.8345092748
H       -0.1216728939   -0.0839243238    2.4023370887
H        3.7005316343   -2.0960135394    2.5122699226
H        2.8109266496   -2.9834462644    4.3721752303
H        1.6213068028   -1.1193369894    8.0503764463
H        0.6480327217    0.7548918410    4.3302411663
22   

C        1.8980546116   -1.0331290087   -0.1731793933
C        0.8839383664   -0.3551799289    0.5031449286
C        2.8495414997   -1.7490199466    0.5530046150
C        2.4093032864   -2.0737042239    6.2947489157
C        0.8195491796   -0.3959394278    1.9010808049
C        2.7840361277   -1.7892766111    1.9507152708
C        2.4309130914   -2.0844159633    4.8956159343
C        1.6731227488   -1.1039907720    6.9762151584
C        0.9868931198   -0.1583870346    4.8624002115
C        1.7593974203   -1.1220681199    2.6572113154
C        1.7116182910   -1.1353078037    4.1449256150
C        0.9605259496   -0.1411358336    6.2616279505
Cl       0.0522251388    1.0823485854    7.1068199494
H        1.9483934145   -1.0008392303   -1.2579142592
H        0.1398798750    0.2038813704   -0.0571119289
H        3.6478557758   -2.2703438016    0.0325136607
H        2.9640302039   -2.8234059187    6.8519826019
H       -0.0010178629    0.1319928703    2.3722055710
H        3.5657097133   -2.3344460431    2.4659454406
H        3.0013188220   -2.8699849812    4.4143485554
H        1.6540059816   -1.0917484446    8.0619489796
H        0.4427117916    0.6293888695    4.3567422180
22   

C        1.8784171942   -1.0458569773   -0.1862066301
C        1.0060271884   -0.2077082595    0.5047600890
C        2.7142781460   -1.9009918093    0.5282931424
C        2.5507678336   -1.9574362273    6.3014593326
C        0.9693463852   -0.2243208145    1.9043124404
C        2.6769274372   -1.9169263837    1.9274394289
C        2.5905390630   -1.9439128906    4.9026564373
C        1.6757431062   -1.1164500931    6.9865284108
C        0.8840314153   -0.2522162904    4.8756588429
C        1.8012636599   -1.0769674580    2.6562394865
C        1.7601218999   -1.0926428854    4.1478339143
C        0.8386673934   -0.2601985423    6.2744908975
Cl      -0.2587672265    0.7949710634    7.1225291514
H        1.9065146447   -1.0326063597   -1.2721484269
H        0.3512007901    0.4618654108   -0.0456730076
H        3.3973493969   -2.5576184967   -0.0030176241
H        3.2037849892   -2.6253843639    6.8561989402
H        0.2653820445    0.4556820517    2.3649123736
H        3.3550120760   -2.6070209102    2.4112649987
H        3.2944073263   -2.6238054768    4.4415912672
H        1.6420115762   -1.1241000729    8.0719522421
H        0.2064463687    0.4373913820    4.3918091141
