22   

C        1.8653896433   -1.0661084285   -0.1744312734
C        1.1522170498   -0.0843955994    0.5133809500
C        2.5628188578   -2.0384299878    0.5420556600
C        2.6657759610   -1.8148232735    6.3045493935
C        1.1394482465   -0.0730449816    1.9132880421
C        2.5495434268   -2.0259600556    1.9417610701
C        2.7295918291   -1.7829406733    4.9070282501
C        1.6636555995   -1.1135356098    6.9758557698
C        0.7918053580   -0.3553000347    4.8549480494
C        1.8458659547   -1.0347861920    2.6605102600
C        1.8023724922   -1.0437055815    4.1483916348
C        0.7214043347   -0.3824885158    6.2524944804
Cl      -0.5422076614    0.4823631224    7.0841136007
H        1.8746414521   -1.0752961566   -1.2607352574
H        0.6073013347    0.6756697725   -0.0392743295
H        3.1114283906   -2.8117980582    0.0120325422
H        3.3994026778   -2.3839476120    6.8686179377
H        0.5858758317    0.7243831318    2.3946064936
H        3.0826542759   -2.8220144708    2.4475038340
H        3.5384768021   -2.3277991919    4.4348691355
H        1.6101840855   -1.1359640053    8.0602777539
H        0.0182913965    0.2009944771    4.3405291613
22   

C        1.8817276515   -1.0657916979   -0.1571825901
C        1.2826623801   -0.0051103722    0.5261873624
C        2.4482049328   -2.1209452696    0.5616145370
C        2.7324630641   -1.6791313926    6.3070251568
C        1.2513589074    0.0003645067    1.9257567691
C        2.4167507109   -2.1138050968    1.9611921958
C        2.7884021354   -1.6678720082    4.9088814893
C        1.6576287685   -1.0792104735    6.9682458310
C        0.6999767363   -0.4606597102    4.8379388008
C        1.8215456537   -1.0507702391    2.6664203553
C        1.7750222552   -1.0547873246    4.1503950299
C        0.6368235121   -0.4682740729    6.2360808673
Cl      -0.7093867640    0.2722313144    7.0576379529
H        1.9053907662   -1.0707892198   -1.2432910198
H        0.8428462018    0.8184792492   -0.0290452351
H        2.9088006686   -2.9510576107    0.0336705688
H        3.5263906325   -2.1513807872    6.8787828863
H        0.7944035695    0.8456817650    2.4299467867
H        2.8442442175   -2.9573994707    2.4930457099
H        3.6417556188   -2.1249661123    4.4185066685
H        1.6096853343   -1.0859472796    8.0531315131
H       -0.1165346618   -0.0001377099    4.2926728105
22   

C        1.8897198879   -1.0596634969   -0.1503390173
C        1.4065292878    0.0545590848    0.5422181177
C        2.3238509559   -2.1843904753    0.5576543645
C        2.7969499732   -1.5620473584    6.2942062331
C        1.3560480750    0.0424516740    1.9411845361
C        2.2730960289   -2.1946860896    1.9567399013
C        2.8332146591   -1.5736498270    4.8954165028
C        1.6720166512   -1.0636534820    6.9590704362
C        0.6272971382   -0.5893240224    4.8319910423
C        1.7841173881   -1.0842979898    2.6639067469
C        1.7452959146   -1.0927938592    4.1473274417
C        0.5833066538   -0.5743055936    6.2308789024
Cl      -0.8177395343    0.0481645875    7.0584147844
H        1.9289590464   -1.0509009462   -1.2359700514
H        1.0731143780    0.9317405046   -0.0049438947
H        2.6990961816   -3.0516596843    0.0219492687
H        3.6434981875   -1.9361659983    6.8630873327
H        0.9914947996    0.9190069672    2.4683163305
H        2.6050372809   -3.0769828164    2.4955170356
H        3.7160013233   -1.9487906547    4.3863891959
H        1.6391617658   -1.0522494873    8.0444766724
H       -0.2259854861   -0.2151732147    4.2755081442
22   

C        1.8855472744   -1.0595933500   -0.1460406641
C        1.5405843993    0.1011502746    0.5541196722
C        2.1698637846   -2.2371956259    0.5533991454
C        2.8303650517   -1.4267490306    6.2874853173
C        1.4770951358    0.0822081567    1.9524893762
C        2.1058672621   -2.2540256586    1.9519660174
C        2.8579240961   -1.4524009743    4.8886683277
C        1.6604418904   -1.0480185086    6.9551466085
C        0.5543651458   -0.7193770268    4.8311527809
C        1.7495135613   -1.0986058406    2.6620860418
C        1.7150827967   -1.1100584424    4.1483505031
C        0.5185944353   -0.6907294446    6.2301415221
Cl      -0.9352220728   -0.2112138649    7.0617294201
H        1.9355128576   -1.0456276109   -1.2311759249
H        1.3252960544    1.0185079690    0.0136607411
H        2.4410467124   -3.1388686507    0.0117431650
H        3.7173676106   -1.6963661429    6.8538456224
H        1.2199493377    0.9881205006    2.4936310333
H        2.3277053188   -3.1699084203    2.4917904241
H        3.7693701589   -1.7340218534    4.3693827392
H        1.6340816019   -1.0255559926    8.0405557488
H       -0.3318883986   -0.4409183605    4.2696068378
22   

C        1.8868149789   -1.0679332773   -0.1450552533
C        1.7113827658    0.1298679601    0.5563520802
C        2.0049717461   -2.2746371463    0.5532650125
C        2.8667304215   -1.2676084710    6.2912661542
C        1.6518194828    0.1191497109    1.9550143484
C        1.9449962757   -2.2828176163    1.9521286775
C        2.9005042663   -1.2904607791    4.8925173744
C        1.6558379214   -1.0417362261    6.9557740423
C        0.5214065777   -0.8600962296    4.8288796065
C        1.7601612421   -1.0886231026    2.6611787249
C        1.7249479228   -1.0963011851    4.1517417739
C        0.4787522364   -0.8353033828    6.2278145772
Cl      -1.0266961079   -0.5468218024    7.0557075631
H        1.9335867189   -1.0606790841   -1.2303979091
H        1.6236488208    1.0685328227    0.0167282064
H        2.1442511476   -3.2053326142    0.0107145842
H        3.7794912384   -1.4220107116    6.8598276428
H        1.5225260398    1.0494921311    2.5004490587
H        2.0392659288   -3.2192020445    2.4942923113
H        3.8393014685   -1.4573406300    4.3722402128
H        1.6241539886   -1.0222390680    8.0410977898
H       -0.3898106422   -0.6969820363    4.2618174589
22   

C        1.8770477374   -1.0790290908   -0.1465643519
C        1.9016238584    0.1358288208    0.5471119645
C        1.8125646039   -2.2849798675    0.5601396458
C        2.8893632155   -1.0907735752    6.3028693068
C        1.8618624204    0.1430628137    1.9465281020
C        1.7729045612   -2.2749138844    1.9597074111
C        2.9384748042   -1.0969406571    4.9043882578
C        1.6527462433   -1.0437505678    6.9567087087
C        0.5233633343   -1.0093515961    4.8197192309
C        1.7974820640   -1.0625048667    2.6608618016
C        1.7546367197   -1.0562277842    4.1535174278
C        0.4647954402   -1.0028531169    6.2182965136
Cl      -1.0740684821   -0.9443514691    7.0328368196
H        1.9075193231   -1.0859042122   -1.2324888083
H        1.9510866429    1.0734274925    0.0008188310
H        1.7928033781   -3.2292925266    0.0236256761
H        3.8095818331   -1.1224349639    6.8794395513
H        1.8802448719    1.0852815372    2.4865289570
H        1.7222297552   -3.2105621882    2.5090049964
H        3.8954001542   -1.1333551567    4.3916877950
H        1.6087908225   -1.0387553249    8.0417682479
H       -0.3963963208   -0.9776984580    4.2438936582
22   

C        1.8730916864   -1.0909293521   -0.1472277584
C        2.0888865195    0.1088156419    0.5392725835
C        1.6242697669   -2.2680976300    0.5667814374
C        2.8687711173   -0.9165684132    6.3128432084
C        2.0583118205    0.1291716269    1.9387864214
C        1.5942770944   -2.2449093942    1.9664004429
C        2.9311753123   -0.9102793640    4.9149019638
C        1.6320430486   -1.0465406777    6.9548326938
C        0.5293716211   -1.1658425040    4.8070946471
C        1.8187629009   -1.0492129978    2.6618444988
C        1.7598458739   -1.0256666352    4.1515139173
C        0.4575638014   -1.1734182356    6.2050130014
Cl      -1.0810098604   -1.3420742298    7.0046063123
H        1.8957575733   -1.1078845858   -1.2332328550
H        2.2773493341    1.0251433598   -0.0128043751
H        1.4527655277   -3.2001351763    0.0358703553
H        3.7792004450   -0.8234472319    6.8982349875
H        2.2185402437    1.0616547855    2.4720996336
H        1.3981356436   -3.1585140682    2.5201444982
H        3.8896241722   -0.8171909776    4.4123534771
H        1.5778628391   -1.0526434635    8.0394236929
H       -0.3804250696   -1.2668508842    4.2234970592
22   

C        1.8694516973   -1.0925108179   -0.1504230673
C        2.2486514842    0.0630365936    0.5404299033
C        1.4553160834   -2.2245495918    0.5591898505
C        2.8387933276   -0.7581383544    6.3065432246
C        2.2164639975    0.0840298570    1.9398600882
C        1.4237482564   -2.2013035053    1.9587332787
C        2.8980574286   -0.7532402354    4.9084903479
C        1.6299331404   -1.0399280986    6.9522650434
C        0.5484455383   -1.3134676444    4.8079700800
C        1.8127546079   -1.0512419071    2.6610595672
C        1.7496278639   -1.0200745335    4.1461833151
C        0.4805135555   -1.3207066986    6.2060288676
Cl      -1.0228575642   -1.6787228682    7.0102447977
H        1.8934063389   -1.1097178592   -1.2363970769
H        2.5646133688    0.9455663716   -0.0084445794
H        1.1571782394   -3.1220352851    0.0247589704
H        3.7310327675   -0.5472811304    6.8893630541
H        2.5011096724    0.9860747741    2.4734720970
H        1.1014574413   -3.0826396885    2.5055699438
H        3.8385012805   -0.5460176967    4.4061712553
H        1.5786000413   -1.0456904416    8.0369968256
H       -0.3444829968   -1.5315986071    4.2305397834
22   

C        1.8715359025   -1.0859443040   -0.1512518866
C        2.3880266673    0.0066971646    0.5515153589
C        1.3148513897   -2.1618506664    0.5467504626
C        2.8069732824   -0.6236050707    6.3006282495
C        2.3490331427    0.0215750458    1.9508241655
C        1.2761856422   -2.1451781640    1.9461494007
C        2.8568930247   -0.6267729449    4.9022175546
C        1.6425384117   -1.0328780294    6.9583088701
C        0.5855664125   -1.4481489113    4.8249217170
C        1.7967097633   -1.0559966020    2.6642813309
C        1.7438329276   -1.0338390520    4.1472658351
C        0.5277221920   -1.4477013875    6.2233736676
Cl      -0.9228404166   -1.9585157843    7.0420163210
H        1.9013188330   -1.0983313516   -1.2371487792
H        2.8166370885    0.8462356840    0.0116815643
H        0.9133662210   -3.0123904151    0.0032562910
H        3.6731808185   -0.3070613063    6.8748343699
H        2.7412007636    0.8809647930    2.4861585579
H        0.8492360840   -2.9910387598    2.4765692847
H        3.7688370343   -0.3207568168    4.3983249180
H        1.5988187299   -1.0323077927    8.0433894944
H       -0.2880366782   -1.7632571019    4.2634459986
22   

C        1.9239747033   -1.0574104145   -0.1569323879
C        1.4077126843   -2.1643751536    0.5207296095
C        2.3712082430    0.0508168450    0.5661457911
C        0.6237511325   -1.7473940655    6.2200375315
C        1.3402876313   -2.1631384872    1.9190909397
C        2.3038543160    0.0506366896    1.9644158314
C        0.6905682263   -1.7505492517    4.8223177582
C        1.5760799645   -1.0456464380    6.9636227319
C        2.6567433778   -0.3549012346    4.9160450395
C        1.7917720734   -1.0585517889    2.6638525530
C        1.7058053476   -1.0507126246    4.1459949538
C        2.5968401704   -0.3472804339    6.3143264147
Cl       3.7912882877    0.5208901366    7.2390679875
H        1.9761136172   -1.0576976959   -1.2420583740
H        1.0610739400   -3.0289346525   -0.0381419475
H        2.7670366746    0.9164000652    0.0425972311
H       -0.1706355553   -2.2877277051    6.7272249739
H        0.9504859693   -3.0433357202    2.4196614042
H        2.6373742017    0.9341617155    2.4989624746
H       -0.0706760042   -2.2883855193    4.2666364519
H        1.5284377193   -1.0406374815    8.0485324539
H        3.4721067228    0.1759645930    4.4369608301
22   

C        1.9156165341   -1.0542800479   -0.1662581696
C        1.2709672364   -2.0915198165    0.5077693219
C        2.4950405858   -0.0157810950    0.5625100660
C        0.7185250135   -1.8558905242    6.2391497872
C        1.2098223391   -2.0926732371    1.9065387034
C        2.4335744442   -0.0178972853    1.9609020894
C        0.7809404749   -1.8549160517    4.8411146162
C        1.5880806181   -1.0544022067    6.9797534866
C        2.5811417064   -0.2583023719    4.9273779139
C        1.8001875817   -1.0645926496    2.6658985752
C        1.7043515320   -1.0469758786    4.1511526046
C        2.5246979777   -0.2539973533    6.3257388667
Cl       3.6247275579    0.7363888046    7.2451314502
H        1.9627475254   -1.0532089382   -1.2516178854
H        0.8175619790   -2.9025447239   -0.0549564107
H        2.9886730955    0.8006609723    0.0430805325
H       -0.0102983180   -2.4793361354    6.7494629188
H        0.7135512362   -2.9328644370    2.3769519038
H        2.8717209840    0.8285317057    2.4764735501
H        0.0704109610   -2.4803819434    4.3141086421
H        1.5429137812   -1.0524898796    8.0647831402
H        3.3463405725    0.3552190253    4.4682258617
22   

C        1.9066897994   -1.0512421017   -0.1814875648
C        1.1046496884   -1.9741638378    0.4866264864
C        2.6490890643   -0.1307510780    0.5549118329
C        0.8516739578   -1.9949098350    6.2463883532
C        1.0447041234   -1.9772421068    1.8855660477
C        2.5889505251   -0.1340584342    1.9532761558
C        0.9131400034   -1.9899804494    4.8482249835
C        1.5934333373   -1.0745799412    6.9849147095
C        2.4552890826   -0.1477294432    4.9289771456
C        1.7831880809   -1.0595884639    2.6581512216
C        1.7155819753   -1.0676806849    4.1487511403
C        2.3985609798   -0.1469637710    6.3273484699
Cl       3.3294167596    1.0075404912    7.2424803363
H        1.9528254321   -1.0493393753   -1.2668931015
H        0.5232280227   -2.6946606280   -0.0815955077
H        3.2768698252    0.5920528804    0.0415464219
H        0.2237884101   -2.7183099843    6.7590148435
H        0.3992692422   -2.7247019159    2.3263737709
H        3.1928555765    0.6098623043    2.4556234723
H        0.3093224777   -2.7342625345    4.3468612850
H        1.5479747173   -1.0756904126    8.0699381738
H        3.0998821268    0.5991729078    4.4867138023
22   

C        1.9089028724   -1.0315073561   -0.1735904070
C        0.9646855270   -1.8224563247    0.4811016212
C        2.7932899744   -0.2547791081    0.5746741359
C        0.9965265697   -2.1238568139    6.2350906700
C        0.9020282450   -1.8333067174    1.8797617453
C        2.7297388028   -0.2660719968    1.9729345148
C        1.0591569178   -2.1112358131    4.8371189776
C        1.5965076906   -1.1024130838    6.9724758288
C        2.3147993557   -0.0581860779    4.9167773123
C        1.7727584943   -1.0465709340    2.6575503920
C        1.7304121220   -1.0857127287    4.1448657394
C        2.2562177323   -0.0640204462    6.3150439147
Cl       2.9928664326    1.2234325761    7.2293823784
H        1.9577739232   -1.0234387834   -1.2588444132
H        0.2738249861   -2.4296696713   -0.0968291446
H        3.5383140973    0.3545941466    0.0710285081
H        0.4825458993   -2.9319175461    6.7480720513
H        0.1365785342   -2.4511781981    2.3334197413
H        3.4604318055    0.3305613293    2.5061892847
H        0.5938164117   -2.9380280264    4.3139979955
H        1.5498677142   -1.1085154518    8.0574280464
H        2.8100493083    0.7856809462    4.4526713704
22   

C        1.9067592010   -1.0300916754   -0.1593732903
C        0.8725430266   -1.7061792868    0.4920849173
C        2.8818416349   -0.3681130488    0.5903008390
C        1.1245273327   -2.1862750161    6.2345778209
C        0.8132419300   -1.7187954840    1.8907538739
C        2.8211251700   -0.3809242160    1.9888193980
C        1.1819078091   -2.1745217916    4.8364758645
C        1.6113123635   -1.0979219528    6.9631939739
C        2.2089721821    0.0081454913    4.8999758080
C        1.7828766061   -1.0524508686    2.6617666373
C        1.7291517812   -1.0788016672    4.1451978944
C        2.1547391941    0.0039508193    6.2984896359
Cl       2.7538946777    1.3665735972    7.2039504318
H        1.9534768360   -1.0203561724   -1.2447025473
H        0.1111776925   -2.2201929459   -0.0876334532
H        3.6915810245    0.1530666736    0.0875978470
H        0.7046374671   -3.0431306927    6.7539405999
H       -0.0107357201   -2.2374858856    2.3695901157
H        3.6046824398    0.1225837400    2.5456935880
H        0.8135438183   -3.0389456308    4.2936853963
H        1.5685548778   -1.1024608208    8.0483077490
H        2.6144708705    0.8850521054    4.4072640164
22   

C        1.9148327516   -1.0233579886   -0.1566801819
C        0.8042225467   -1.5818667530    0.4829403432
C        2.9589441393   -0.4878005989    0.6033781571
C        1.2366795143   -2.2518681956    6.2268471869
C        0.7396445688   -1.6059214805    1.8811715718
C        2.8925767753   -0.5122080365    2.0016254642
C        1.2895635568   -2.2390873059    4.8286056275
C        1.6090492675   -1.1140092922    6.9497164001
C        2.0867038119    0.0414970336    4.8814632788
C        1.7849248260   -1.0753860717    2.6565474456
C        1.7099504169   -1.0893605757    4.1386937575
C        2.0364598352    0.0366801100    6.2802072902
Cl       2.5013349813    1.4541907717    7.1800899341
H        1.9657809441   -1.0041989377   -1.2416915335
H       -0.0107442302   -1.9942206850   -0.1050618601
H        3.8233523112   -0.0537678642    0.1090022057
H        0.9102299523   -3.1460498993    6.7503922107
H       -0.1334261613   -2.0303711421    2.3675037443
H        3.7142193724   -0.1010273682    2.5803697537
H        1.0120406460   -3.1305844916    4.2741610043
H        1.5698549137   -1.1189198538    8.0349595491
H        2.4111824293    0.9424918044    4.3709228372
22   

C        1.9206857475   -1.0214993879   -0.1551115449
C        0.7461730965   -1.4430752318    0.4766870971
C        3.0222579183   -0.6282075542    0.6119901704
C        1.3713728764   -2.2834177166    6.2362282828
C        0.6758037405   -1.4740365758    1.8745322644
C        2.9496641921   -0.6598083789    2.0098408303
C        1.4162901045   -2.2798422720    4.8376390444
C        1.6161300989   -1.1020053093    6.9447879706
C        1.9521555485    0.0774595977    4.8619047916
C        1.7803512185   -1.0916433592    2.6528279085
C        1.6962753894   -1.0956750306    4.1372228300
C        1.9094769740    0.0825680106    6.2609729771
Cl       2.2213948528    1.5518274218    7.1436097041
H        1.9761887441   -0.9964409970   -1.2397775028
H       -0.1128272754   -1.7429819786   -0.1167169088
H        3.9343444653   -0.2972560499    0.1235723121
H        1.1506312464   -3.2030362963    6.7708372304
H       -0.2409733642   -1.7915080431    2.3625713948
H        3.8074618742   -0.3534890259    2.6014548847
H        1.2378704014   -3.1988156824    4.2868628036
H        1.5831782475   -1.0994129461    8.0302455152
H        2.1799721603    0.9975981918    4.3329694115
22   

C        1.9192582570   -1.0249911621   -0.1524261506
C        0.6987417335   -1.2834683778    0.4806390193
C        3.0676642859   -0.7967073953    0.6134056262
C        1.5297351686   -2.3117809178    6.2465354276
C        0.6289114095   -1.3160455670    1.8785134933
C        2.9950092774   -0.8298980058    2.0112568647
C        1.5732877159   -2.3113380562    4.8478669039
C        1.6226734268   -1.1039196191    6.9472272249
C        1.8045156849    0.0953265466    4.8563785702
C        1.7783251658   -1.0974185842    2.6530004908
C        1.7017855179   -1.1057792903    4.1420287539
C        1.7621396048    0.1042935608    6.2554912230
Cl       1.8846833938    1.6069847913    7.1283622319
H        1.9745907680   -0.9986424966   -1.2370700597
H       -0.1953856920   -1.4561164866   -0.1115535947
H        4.0157082961   -0.5921579122    0.1241751469
H        1.4267055423   -3.2484961008    6.7870783152
H       -0.3197920842   -1.5094453983    2.3706306611
H        3.8862670938   -0.6496831422    2.6053609249
H        1.5090689325   -3.2471148045    4.3001056152
H        1.5900375865   -1.0984917264    8.0326837626
H        1.9153688788    1.0314084929    4.3178797004
22   

C        1.9066783321   -1.0356909198   -0.1520775571
C        0.6687636539   -1.1029635928    0.4965345624
C        3.0863557757   -0.9889247900    0.5989535569
C        1.7064707223   -2.3235023817    6.2452077055
C        0.6122555796   -1.1235409782    1.8952476467
C        3.0269455963   -1.0096380790    1.9976995080
C        1.7616368403   -2.3127821488    4.8469766542
C        1.6219412375   -1.1165076163    6.9487184228
C        1.6479341282    0.1025515438    4.8614924570
C        1.7912002247   -1.0771869095    2.6538733323
C        1.7327031871   -1.0985959668    4.1458371986
C        1.5923063429    0.1013520300    6.2602018741
Cl       1.4870807434    1.6033678365    7.1364862956
H        1.9518029646   -1.0193158599   -1.2373898107
H       -0.2485465361   -1.1387931553   -0.0841815282
H        4.0485167243   -0.9360985209    0.0975348016
H        1.7292481652   -3.2671150843    6.7830871636
H       -0.3479404895   -1.1751177959    2.4002994370
H        3.9421800039   -0.9727442924    2.5814124609
H        1.8273113241   -3.2465225942    4.2958792907
H        1.5788645604   -1.1189558390    8.0338219018
H        1.6251473233    1.0456661033    4.3243209420
22   

C        1.8952403525   -1.0344062925   -0.1523759590
C        0.6718833548   -0.9045784215    0.5139935974
C        3.0785181533   -1.1721648079    0.5815552778
C        1.8839042159   -2.3111932486    6.2347644478
C        0.6335979653   -0.9101546355    1.9134280494
C        3.0377518768   -1.1773804335    1.9811253360
C        1.9557371563   -2.2794311863    4.8376350007
C        1.6203221393   -1.1350756846    6.9461784907
C        1.4988214886    0.0953945432    4.8689438850
C        1.8176335017   -1.0384836922    2.6556548496
C        1.7730643706   -1.0726723899    4.1455982304
C        1.4249484962    0.0724460917    6.2666172331
Cl       1.0895547738    1.5344819578    7.1525979282
H        1.9259971901   -1.0306175923   -1.2383078953
H       -0.2486037031   -0.8017596463   -0.0535578909
H        4.0289959379   -1.2761103155    0.0660540703
H        2.0295998984   -3.2478021670    6.7655874636
H       -0.3165086218   -0.8163050524    2.4313506762
H        3.9559557922   -1.2868699872    2.5508235549
H        2.1520456827   -3.1911141341    4.2807018788
H        1.5627571154   -1.1542753142    8.0304431532
H        1.3443979182    1.0303090885    4.3392564946
22   

C        1.8883946530   -1.0376552507   -0.1529695762
C        0.6997941031   -0.7362024982    0.5200116904
C        3.0439305152   -1.3411011449    0.5746722429
C        2.0399522834   -2.2666777712    6.2409709922
C        0.6688184309   -0.7352966724    1.9196055650
C        3.0108352222   -1.3397147021    1.9744135683
C        2.1151954163   -2.2309898005    4.8441296267
C        1.6241932199   -1.1319003741    6.9462049741
C        1.3575992496    0.0652585611    4.8632905734
C        1.8270618177   -1.0272932529    2.6580241702
C        1.7857186150   -1.0595287318    4.1437948490
C        1.2792647485    0.0377309737    6.2605666724
Cl       0.7536844124    1.4476906650    7.1385361759
H        1.9131674908   -1.0390658643   -1.2390611299
H       -0.2004567444   -0.5062030991   -0.0426955748
H        3.9671981076   -1.5785847296    0.0539778082
H        2.2998628562   -3.1754842333    6.7764607699
H       -0.2585124493   -0.5118788421    2.4390067579
H        3.9097032475   -1.5762598948    2.5361487779
H        2.4256388384   -3.1152296824    4.2950878165
H        1.5631900590   -1.1546507375    8.0302129177
H        1.0886947519    0.9730050564    4.3322490316
22   

C        1.8896766792   -1.0423003933   -0.1568787993
C        0.7456886377   -0.6022766629    0.5155986341
C        2.9934828200   -1.4960071283    0.5714636242
C        2.1733416303   -2.2324643912    6.2549062739
C        0.7071759389   -0.6144591702    1.9149359956
C        2.9531177314   -1.5079670652    1.9708842152
C        2.2346862575   -2.2058628176    4.8571913082
C        1.6387003545   -1.1435480519    6.9508944440
C        1.2273488033   -0.0092910418    4.8568201188
C        1.8123664720   -1.0628142956    2.6584295290
C        1.7677294487   -1.0902956136    4.1416390383
C        1.1625828323   -0.0282542585    6.2548443709
Cl       0.4950837995    1.3279270200    7.1211242953
H        1.9202245353   -1.0328742728   -1.2427842896
H       -0.1153027835   -0.2537678839   -0.0476390899
H        3.8838211898   -1.8377477836    0.0514116042
H        2.5370620533   -3.0998294837    6.7986134606
H       -0.1919331909   -0.2829542342    2.4256449161
H        3.8195602739   -1.8544706505    2.5259737248
H        2.6378744101   -3.0610536653    4.3231117596
H        1.5887043566   -1.1595053988    8.0355878909
H        0.8631034295    0.8642326894    4.3257491574
22   

C        1.8912161479   -1.0397325296   -0.1596769599
C        0.8004926126   -0.4813412148    0.5107401087
C        2.9272648460   -1.6258241095    0.5711068046
C        2.2884842261   -2.1603339730    6.2804746481
C        0.7459671063   -0.5101844849    1.9093087604
C        2.8711144442   -1.6545558192    1.9696369208
C        2.3269167383   -2.1565655716    4.8817038118
C        1.6531967569   -1.1209393683    6.9648800770
C        1.0986361115   -0.0795047445    4.8563781469
C        1.7773603220   -1.1009347000    2.6615884441
C        1.7289932977   -1.1180829508    4.1453811169
C        1.0564464227   -0.0760723822    6.2553310590
Cl       0.2718824530    1.2261934820    7.1063032775
H        1.9342502677   -1.0167113627   -1.2449586274
H       -0.0083611562   -0.0265011133   -0.0539705379
H        3.7805191461   -2.0549108105    0.0536147784
H        2.7496653323   -2.9731103681    6.8345090652
H       -0.1216822193   -0.0839424145    2.4023364548
H        3.7005611307   -2.0959548688    2.5122779227
H        2.8109289969   -2.9834435328    4.3721727102
H        1.6213010294   -1.1193407044    8.0503762043
H        0.6480274789    0.7548885741    4.3302405294
22   

C        1.8980729753   -1.0331049994   -0.1731772519
C        0.8839458617   -0.3551704725    0.5031455471
C        2.8495654201   -1.7489876566    0.5530078205
C        2.4093026697   -2.0737048403    6.2947488772
C        0.8195491796   -0.3959394278    1.9010808049
C        2.7840529550   -1.7892530357    1.9507178973
C        2.4309130914   -2.0844159633    4.8956159343
C        1.6731210198   -1.1039921030    6.9762150214
C        0.9868913372   -0.1583883207    4.8624000027
C        1.7593974203   -1.1220681199    2.6572113154
C        1.7116182910   -1.1353078037    4.1449256150
C        0.9605235581   -0.1411376022    6.2616277569
Cl       0.0522211630    1.0823456477    7.1068197282
H        1.9484169040   -1.0008088272   -1.2579116902
H        0.1398850304    0.2038870242   -0.0571119983
H        3.6478895386   -2.2702978104    0.0325182463
H        2.9640298197   -2.8234063805    6.8519825336
H       -0.0010246040    0.1319828203    2.3722052354
H        3.5657314071   -2.3344130485    2.4659509003
H        3.0013189623   -2.8699839873    4.4143467820
H        1.6540037485   -1.0917500881    8.0619488365
H        0.4427094491    0.6293869562    4.3567415429
22   

C        1.8784171726   -1.0458569604   -0.1862066359
C        1.0060271842   -0.2077082376    0.5047600948
C        2.7142781188   -1.9009918103    0.5282931264
C        2.5507678460   -1.9574361773    6.3014593349
C        0.9693463852   -0.2243208145    1.9043124404
C        2.6769274253   -1.9169263878    1.9274394178
C        2.5905390630   -1.9439128906    4.9026564373
C        1.6757431084   -1.1164500469    6.9865284084
C        0.8840313854   -0.2522163083    4.8756588344
C        1.8012636599   -1.0769674580    2.6562394865
C        1.7601218999   -1.0926428854    4.1478339143
C        0.8386673646   -0.2601985331    6.2744908905
Cl      -0.2587672666    0.7949710696    7.1225291377
H        1.9065146067   -1.0326063207   -1.2721484326
H        0.3512007907    0.4618654587   -0.0456729761
H        3.3973493532   -2.5576185018   -0.0030176572
H        3.2037850291   -2.6253842721    6.8561989546
H        0.2653820586    0.4556820575    2.3649123845
H        3.3550120584   -2.6070209217    2.4112649835
H        3.2944073391   -2.6238054660    4.4415912697
H        1.6420116013   -1.1241000020    8.0719522410
H        0.2064463020    0.4373913225    4.3918091000
