22   

C        1.8653966642   -1.0661029348   -0.1744314186
C        1.1522198375   -0.0843933355    0.5133809664
C        2.5628282401   -2.0384228786    0.5420553578
C        2.6657756535   -1.8148236333    6.3045493786
C        1.1394482465   -0.0730449816    1.9132880421
C        2.5495502735   -2.0259550594    1.9417607590
C        2.7295918291   -1.7829406733    4.9070282501
C        1.6636549251   -1.1135365084    6.9758557461
C        0.7918047492   -0.3553008808    4.8549480437
C        1.8458659547   -1.0347861920    2.6605102600
C        1.8023724922   -1.0437055815    4.1483916348
C        0.7214034854   -0.3824896767    6.2524944503
Cl      -0.5422090278    0.4823612570    7.0841135183
H        1.8746503541   -1.0752891164   -1.2607353988
H        0.6073030335    0.6756713652   -0.0392741583
H        3.1114417370   -2.8117880441    0.0120321090
H        3.3994024387   -2.3839478761    6.8686179343
H        0.5858729153    0.7243811250    2.3946064276
H        3.0826638747   -2.8220080041    2.4475028617
H        3.5384771754   -2.3277990255    4.4348696742
H        1.6101832284   -1.1359651807    8.0602777148
H        0.0182905536    0.2009933753    4.3405292540
22   

C        1.8817456522   -1.0657807979   -0.1571826773
C        1.2826695519   -0.0051058269    0.5261875075
C        2.4482288189   -2.1209313054    0.5616141728
C        2.7324623725   -1.6791322866    6.3070251408
C        1.2513589074    0.0003645067    1.9257567691
C        2.4167678918   -2.1137954000    1.9611916991
C        2.7884021354   -1.6678720082    4.9088814893
C        1.6576272930   -1.0792127490    6.9682457618
C        0.6999755005   -0.4606618152    4.8379387407
C        1.8215456537   -1.0507702391    2.6664203553
C        1.7750222552   -1.0547873246    4.1503950299
C        0.6368216941   -0.4682770346    6.2360807600
Cl      -0.7093897355    0.2722264110    7.0576377125
H        1.9054136407   -1.0707752250   -1.2432910158
H        0.8428507154    0.8184825836   -0.0290447799
H        2.9088345308   -2.9510380169    0.0336700531
H        3.5263901316   -2.1513812616    6.8787829533
H        0.7943964352    0.8456779656    2.4299466428
H        2.8442673798   -2.9573874743    2.4930439511
H        3.6417567649   -2.1249649919    4.4185077469
H        1.6096834787   -1.0859501804    8.0531314225
H       -0.1165363857   -0.0001406219    4.2926728302
22   

C        1.8897525989   -1.0596488663   -0.1503383190
C        1.4065424537    0.0545652322    0.5422186435
C        2.3238940359   -2.1843717458    0.5576550093
C        2.7969493277   -1.5620484191    6.2942062434
C        1.3560480750    0.0424516740    1.9411845361
C        2.2731267698   -2.1946729753    1.9567400391
C        2.8332146591   -1.5736498270    4.8954165028
C        1.6720152940   -1.0636561394    6.9590704163
C        0.6272959891   -0.5893264923    4.8319910154
C        1.7841173881   -1.0842979898    2.6639067469
C        1.7452959146   -1.0927938592    4.1473274417
C        0.5833049782   -0.5743090643    6.2308788555
Cl      -0.8177422421    0.0481588889    7.0584146683
H        1.9290007622   -1.0508821382   -1.2359689918
H        1.0731229889    0.9317451210   -0.0049430431
H        2.6991571872   -3.0516334218    0.0219502726
H        3.6434977029   -1.9361665701    6.8630874284
H        0.9914820615    0.9190018886    2.4683159311
H        2.6050782501   -3.0769663847    2.4955162466
H        3.7160024716   -1.9487891496    4.3863901545
H        1.6391600705   -1.0522528338    8.0444766496
H       -0.2259870695   -0.2151766094    4.2755081827
22   

C        1.8855920574   -1.0595801784   -0.1460390368
C        1.5406025323    0.1011558572    0.5541205642
C        2.1699225692   -2.2371787620    0.5534010857
C        2.8303647107   -1.4267498636    6.2874853331
C        1.4770951358    0.0822081567    1.9524893762
C        2.1059090579   -2.2540137356    1.9519671062
C        2.8579240961   -1.4524009743    4.8886683277
C        1.6604411615   -1.0480205759    6.9551466281
C        0.5543645255   -0.7193788692    4.8311527987
C        1.7495135613   -1.0986058406    2.6620860418
C        1.7150827967   -1.1100584424    4.1483505031
C        0.5185935353   -0.6907320941    6.2301415455
Cl      -0.9352235340   -0.2112182329    7.0617294558
H        1.9355700297   -1.0456106734   -1.2311736797
H        1.3253081315    1.0185122569    0.0136618493
H        2.4411299607   -3.1388450101    0.0117460703
H        3.7173673635   -1.6963665817    6.8538456802
H        1.2199320182    0.9881159616    2.4936303851
H        2.3277609279   -3.1698932242    2.4917913761
H        3.7693707805   -1.7340206717    4.3693832119
H        1.6340806868   -1.0255586225    8.0405557767
H       -0.3318892682   -0.4409208713    4.2696069296
22   

C        1.8868523915   -1.0679281856   -0.1450538985
C        1.7113979678    0.1298701500    0.5563527417
C        2.0050208049   -2.2746306517    0.5532667196
C        2.8667303701   -1.2676085699    6.2912661574
C        1.6518194828    0.1191497109    1.9550143484
C        1.9450311338   -2.2828129921    1.9521297629
C        2.9005042663   -1.2904607791    4.8925173744
C        1.6558378281   -1.0417364802    6.9557740260
C        0.5214065177   -0.8600965075    4.8288795806
C        1.7601612421   -1.0886231026    2.6611787249
C        1.7249479228   -1.0963011851    4.1517417739
C        0.4787521373   -0.8353037310    6.2278145466
Cl      -1.0266962685   -0.5468223507    7.0557074942
H        1.9336344913   -1.0606725217   -1.2303960987
H        1.6236590529    1.0685345657    0.0167289006
H        2.1443206188   -3.2053235300    0.0107170873
H        3.7794911929   -1.4220107023    6.8598276682
H        1.5225116131    1.0494904173    2.5004485589
H        2.0393123200   -3.2191961203    2.4942936334
H        3.8393015705   -1.4573403370    4.3722403017
H        1.6241538593   -1.0222393662    8.0410977737
H       -0.3898107418   -0.6969824873    4.2618174540
22   

C        1.8770476907   -1.0790290915   -0.1465643501
C        1.9016238445    0.1358288213    0.5471119643
C        1.8125645214   -2.2849798651    0.5601396473
C        2.8893632227   -1.0907735539    6.3028693058
C        1.8618624204    0.1430628137    1.9465281020
C        1.7729044908   -2.2749138832    1.9597074108
C        2.9384748042   -1.0969406571    4.9043882578
C        1.6527462499   -1.0437505673    6.9567087112
C        0.5233633355   -1.0093516343    4.8197192359
C        1.7974820640   -1.0625048667    2.6608618016
C        1.7546367197   -1.0562277842    4.1535174278
C        0.4647954415   -1.0028531615    6.2182965192
Cl      -1.0740684851   -0.9443515697    7.0328368297
H        1.9075192633   -1.0859042155   -1.2324888057
H        1.9510866391    1.0734274910    0.0008188271
H        1.7928032483   -3.2292925240    0.0236256756
H        3.8095818440   -1.1224349149    6.8794395457
H        1.8802448945    1.0852815373    2.4865289561
H        1.7222296391   -3.2105621859    2.5090049939
H        3.8954001527   -1.1333551470    4.3916877914
H        1.6087908374   -1.0387553060    8.0417682489
H       -0.3963963178   -0.9776985363    4.2438936592
22   

C        1.8730549303   -1.0909217354   -0.1472289176
C        2.0888715616    0.1088188449    0.5392722040
C        1.6242216394   -2.2680877972    0.5667798683
C        2.8687711921   -0.9165679662    6.3128432141
C        2.0583118205    0.1291716269    1.9387864214
C        1.5942429604   -2.2449023935    1.9663992079
C        2.9311753123   -0.9102793640    4.9149019638
C        1.6320431365   -1.0465396616    6.9548328125
C        0.5293715543   -1.1658416423    4.8070948700
C        1.8187629009   -1.0492129978    2.6618444988
C        1.7598458739   -1.0256666352    4.1515139173
C        0.4575638154   -1.1734169941    6.2050132256
Cl      -1.0810098654   -1.3420721981    7.0046066671
H        1.8957106182   -1.1078748208   -1.2332342600
H        2.2773392248    1.0251457651   -0.0128044206
H        1.4526973653   -3.2001213472    0.0358682418
H        3.7792005748   -0.8234468733    6.8982349210
H        2.2185543930    1.0616520859    2.4721000964
H        1.3980902478   -3.1585049731    2.5201427326
H        3.8896242121   -0.8171914004    4.4123534835
H        1.5778629946   -1.0526421188    8.0394238146
H       -0.3804253072   -1.2668495867    4.2234974717
22   

C        1.8694081012   -1.0924945758   -0.1504248890
C        2.2486338502    0.0630434191    0.5404293903
C        1.4552587974   -2.2245286895    0.5591872706
C        2.8387934012   -0.7581369699    6.3065432320
C        2.2164639975    0.0840298570    1.9398600882
C        1.4237075111   -2.2012887258    1.9587311614
C        2.8980574286   -0.7532402354    4.9084903479
C        1.6299329782   -1.0399247048    6.9522653901
C        0.5484448841   -1.3134644367    4.8079707241
C        1.8127546079   -1.0512419071    2.6610595672
C        1.7496278639   -1.0200745335    4.1461833151
C        0.4805129886   -1.3207022227    6.2060295160
Cl      -1.0228586490   -1.6787154008    7.0102458172
H        1.8933506898   -1.1096970000   -1.2363992387
H        2.5646016323    0.9455714968   -0.0084444300
H        1.1570970963   -3.1220059111    0.0247554726
H        3.7310331099   -0.5472802064    6.8893628198
H        2.5011265996    0.9860690189    2.4734727788
H        1.1014031923   -3.0826207255    2.5055665984
H        3.8385015508   -0.5460190482    4.4061712179
H        1.5785999426   -1.0456860823    8.0369971808
H       -0.3444844859   -1.5315939306    4.2305411855
22   

C        1.8715039589   -1.0859272756   -0.1512535338
C        2.3880138045    0.0067042805    0.5515149254
C        1.3148092886   -2.1618287608    0.5467480428
C        2.8069732895   -0.6236034278    6.3006282390
C        2.3490331427    0.0215750458    1.9508241655
C        1.2761555824   -2.1451627779    1.9461473850
C        2.8568930247   -0.6267729449    4.9022175546
C        1.6425379357   -1.0328740384    6.9583093172
C        0.5855652431   -1.4481450754    4.8249225597
C        1.7967097633   -1.0559966020    2.6642813309
C        1.7438329276   -1.0338390520    4.1472658351
C        0.5277210414   -1.4476960504    6.2233745097
Cl      -0.9228425900   -1.9585067819    7.0420176493
H        1.9012781261   -1.0983094819   -1.2371507209
H        2.8166286740    0.8462409328    0.0116817625
H        0.9133065766   -3.0123596351    0.0032529380
H        3.6731812505   -0.3070601795    6.8748340028
H        2.7412132307    0.8809587910    2.4861590235
H        0.8491959541   -2.9910192435    2.4765656959
H        3.7688375567   -0.3207584272    4.3983249076
H        1.5988182839   -1.0323027217    8.0433899423
H       -0.2880392225   -1.7632514958    4.2634480546
22   

C        1.9239938470   -1.0574194976   -0.1569318160
C        1.4077203473   -2.1643789334    0.5207299836
C        2.3712335921    0.0508051985    0.5661463421
C        0.6237513166   -1.7473952129    6.2200375355
C        1.3402876313   -2.1631384872    1.9190909397
C        2.3038725398    0.0506285902    1.9644160346
C        0.6905682263   -1.7505492517    4.8223177582
C        1.5760808074   -1.0456491072    6.9636231968
C        2.6567447159   -0.3549036085    4.9160458771
C        1.7917720734   -1.0585517889    2.6638525530
C        1.7058053476   -1.0507126246    4.1459949538
C        2.5968416955   -0.3472838656    6.3143272709
Cl       3.7912910733    0.5208844213    7.2390693700
H        1.9761379772   -1.0577093719   -1.2420575506
H        1.0610788595   -3.0289374368   -0.0381414124
H        2.7670725832    0.9163837266    0.0425980064
H       -0.1706357846   -2.2877285833    6.7272246197
H        0.9504784741   -3.0433326521    2.4196609015
H        2.6373987261    0.9341516981    2.4989618319
H       -0.0706767291   -2.2883844801    4.2666364737
H        1.5284386747   -1.0406409129    8.0485329271
H        3.4721092840    0.1759613883    4.4369629483
22   

C        1.9156241692   -1.0542848673   -0.1662579853
C        1.2709702566   -2.0915217748    0.5077694500
C        2.4950508083   -0.0157873667    0.5625102158
C        0.7185250506   -1.8558909082    6.2391497872
C        1.2098223391   -2.0926732371    1.9065387034
C        2.4335818786   -0.0179016862    1.9609021183
C        0.7809404749   -1.8549160517    4.8411146162
C        1.5880808358   -1.0544030312    6.9797536890
C        2.5811421090   -0.2583030348    4.9273782823
C        1.8001875817   -1.0645926496    2.6658985752
C        1.7043515320   -1.0469758786    4.1511526046
C        2.5246984005   -0.2539983407    6.3257392384
Cl       3.6247282829    0.7363872828    7.2451320452
H        1.9627571961   -1.0532150989   -1.2516176136
H        0.8175637978   -2.9025460472   -0.0549562320
H        2.9886876378    0.8006521173    0.0430807242
H       -0.0102984222   -2.4793364793    6.7494627646
H        0.7135480662   -2.9328626928    2.3769516271
H        2.8717313478    0.8285260412    2.4764730992
H        0.0704107068   -2.4803817030    4.3141087311
H        1.5429140088   -1.0524909466    8.0647833413
H        3.3463412861    0.3552183809    4.4682268614
22   

C        1.9066897382   -1.0512420785   -0.1814875756
C        1.1046496611   -1.9741638356    0.4866264857
C        2.6490890029   -0.1307510473    0.5549118126
C        0.8516739538   -1.9949098210    6.2463883544
C        1.0447041234   -1.9772421068    1.8855660477
C        2.5889505032   -0.1340584268    1.9532761396
C        0.9131400034   -1.9899804494    4.8482249835
C        1.5934333672   -1.0745799513    6.9849147061
C        2.4552891111   -0.1477294673    4.9289771427
C        1.7831880809   -1.0595884639    2.6581512216
C        1.7155819753   -1.0676806849    4.1487511403
C        2.3985610254   -0.1469637982    6.3273484642
Cl       3.3294168398    1.0075404462    7.2424803183
H        1.9528253363   -1.0493393503   -1.2668931127
H        0.5232279958   -2.6946606305   -0.0815955041
H        3.2768697329    0.5920529377    0.0415463923
H        0.2237883631   -2.7183099286    6.7590148509
H        0.3992692507   -2.7247019204    2.3263737757
H        3.1928555590    0.6098623030    2.4556234569
H        0.3093224499   -2.7342625151    4.3468612893
H        1.5479747629   -1.0756904245    8.0699381712
H        3.0998821651    0.5991728735    4.4867137975
22   

C        1.9088968293   -1.0315006665   -0.1735907653
C        0.9646830953   -1.8224536885    0.4811015312
C        2.7932820413   -0.2547701159    0.5746735743
C        0.9965261442   -2.1238568137    6.2350906525
C        0.9020282450   -1.8333067174    1.8797617453
C        2.7297331860   -0.2660654275    1.9729340343
C        1.0591569178   -2.1112358131    4.8371189776
C        1.5965067728   -1.1024129570    6.9724759797
C        2.3147986107   -0.0581857731    4.9167776267
C        1.7727584943   -1.0465709340    2.6575503920
C        1.7304121220   -1.0857127287    4.1448657394
C        2.2562166305   -0.0640201522    6.3150442151
Cl       2.9928647191    1.2234331100    7.2293828536
H        1.9577662127   -1.0234303084   -1.2588448362
H        0.2738233806   -2.4296681050   -0.0968290962
H        3.5383028864    0.3546069447    0.0710277002
H        0.4825455117   -2.9319176643    6.7480718902
H        0.1365808163   -2.4511810322    2.3334196822
H        3.4604244688    0.3305705399    2.5061881456
H        0.5938166846   -2.9380282334    4.3139981118
H        1.5498665285   -1.1085153344    8.0574281859
H        2.8100485020    0.7856815756    4.4526722941
22   

C        1.9067468317   -1.0300742814   -0.1593740280
C        0.8725379222   -1.7061723308    0.4920847632
C        2.8818256872   -0.3680900260    0.5902996752
C        1.1245260948   -2.1862749578    6.2345777668
C        0.8132419300   -1.7187954840    1.8907538739
C        2.8211140138   -0.3809076705    1.9888183782
C        1.1819078091   -2.1745217916    4.8364758645
C        1.6113095159   -1.0979214909    6.9631942637
C        2.2089696285    0.0081464128    4.8999764596
C        1.7828766061   -1.0524508686    2.6617666373
C        1.7291517812   -1.0788016672    4.1451978944
C        2.1547355729    0.0039517704    6.2984902448
Cl       2.7538887148    1.3665753672    7.2039513783
H        1.9534609548   -1.0203340365   -1.2447033949
H        0.1111740409   -2.2201885196   -0.0876332693
H        3.6915585964    0.1530993132    0.0875962110
H        0.7046365084   -3.0431309560    6.7539402435
H       -0.0107313508   -2.2374927854    2.3695900962
H        3.6046683740    0.1226060956    2.5456913241
H        0.8135449502   -3.0389461666    4.2936855169
H        1.5685512071   -1.1024603348    8.0483080066
H        2.6144672746    0.8850541049    4.4072658472
22   

C        1.9148153718   -1.0233260987   -0.1566810141
C        0.8042152704   -1.5818539051    0.4829402288
C        2.9589218100   -0.4877585942    0.6033768283
C        1.2366778284   -2.2518682080    6.2268471167
C        0.7396445688   -1.6059214805    1.8811715718
C        2.8925611075   -0.5121780496    2.0016242368
C        1.2895635568   -2.2390873059    4.8286056275
C        1.6090452120   -1.1140088652    6.9497167250
C        2.0866999571    0.0414981144    4.8814640409
C        1.7849248260   -1.0753860717    2.6565474456
C        1.7099504169   -1.0893605757    4.1386937575
C        2.0364544725    0.0366811598    6.2802079974
Cl       2.5013259897    1.4541927642    7.1800910457
H        1.9657586068   -1.0041582786   -1.2416924430
H       -0.0107496297   -1.9942122638   -0.1050614716
H        3.8233209217   -0.0537083525    0.1090004051
H        0.9102287426   -3.1460502969    6.7503917802
H       -0.1334200230   -2.0303835805    2.3675038680
H        3.7141995213   -0.1009872918    2.5803672516
H        1.0120422695   -3.1305850006    4.2741610302
H        1.5698497238   -1.1189194496    8.0349598330
H        2.4111767597    0.9424941807    4.3709248106
22   

C        1.9206690066   -1.0214557376   -0.1551119925
C        0.7461660582   -1.4430575703    0.4766871335
C        3.0222363870   -0.6281502555    0.6119894113
C        1.3713715595   -2.2834178344    6.2362282348
C        0.6758037405   -1.4740365758    1.8745322644
C        2.9496489811   -0.6597676418    2.0098400100
C        1.4162901045   -2.2798422720    4.8376390444
C        1.6161267727   -1.1020052393    6.9447882131
C        1.9521522385    0.0774602025    4.8619053580
C        1.7803512185   -1.0916433592    2.6528279085
C        1.6962753894   -1.0956750306    4.1372228300
C        1.9094724406    0.0825684886    6.2609735028
Cl       2.2213872313    1.5518283721    7.1436105361
H        1.9761672190   -0.9963852423   -1.2397779137
H       -0.1128325615   -1.7429702308   -0.1167164116
H        3.9343141916   -0.2971748788    0.1235714037
H        1.1506304614   -3.2030366909    6.7708369249
H       -0.2409674204   -1.7915249814    2.3625715227
H        3.8074423464   -0.3534347595    2.6014533010
H        1.2378717803   -3.1988159410    4.2868628013
H        1.5831740479   -1.0994129836    8.0302457317
H        2.1799672481    0.9975996095    4.3329707249
22   

C        1.9192502655   -1.0249544827   -0.1524259400
C        0.6987383777   -1.2834534624    0.4806391930
C        3.0676539596   -0.7966593507    0.6134058584
C        1.5297348906   -2.3117809892    6.2465354236
C        0.6289114095   -1.3160455670    1.8785134933
C        2.9950019269   -0.8298639130    2.0112569072
C        1.5732877159   -2.3113380562    4.8478669039
C        1.6226727026   -1.1039197170    6.9472273082
C        1.8045148822    0.0953265966    4.8563787535
C        1.7783251658   -1.0974185842    2.6530004908
C        1.7017855179   -1.1057792903    4.1420287539
C        1.7621385731    0.1042935272    6.2554913909
Cl       1.8846816854    1.6069847647    7.1283624808
H        1.9745805144   -0.9985956185   -1.2370697163
H       -0.1953882089   -1.4561064072   -0.1115532774
H        4.0156937633   -0.5920898583    0.1241755902
H        1.4267054252   -3.2484962229    6.7870782519
H       -0.3197892340   -1.5094595343    2.3706305937
H        3.8862575285   -0.6496377745    2.6053608728
H        1.5090693004   -3.2471148330    4.3001056289
H        1.5900367003   -1.0984918872    8.0326838422
H        1.9153676007    1.0314087015    4.3178800577
22   

C        1.9066783652   -1.0356909538   -0.1520775437
C        0.6687636761   -1.1029636123    0.4965345608
C        3.0863558019   -0.9889248088    0.5989535785
C        1.7064706902   -2.3235023857    6.2452077050
C        0.6122555796   -1.1235409782    1.8952476467
C        3.0269456035   -1.0096380724    1.9976995254
C        1.7616368403   -2.3127821488    4.8469766542
C        1.6219411472   -1.1165076219    6.9487184185
C        1.6479340719    0.1025515414    4.8614924548
C        1.7912002247   -1.0771869095    2.6538733323
C        1.7327031871   -1.0985959668    4.1458371986
C        1.5923062493    0.1013520261    6.2602018710
Cl       1.4870805982    1.6033678318    7.1364862925
H        1.9518030171   -1.0193159118   -1.2373897966
H       -0.2485465021   -1.1387931854   -0.0841815485
H        4.0485167608   -0.9360985474    0.0975348392
H        1.7292481668   -3.2671150853    6.7830871694
H       -0.3479404945   -1.1751177851    2.4002994287
H        3.9421800010   -0.9727442770    2.5814124943
H        1.8273113634   -3.2465225923    4.2958792921
H        1.5788644234   -1.1189558423    8.0338218951
H        1.6251472605    1.0456660985    4.3243209349
22   

C        1.8952356952   -1.0344438043   -0.1523765054
C        0.6718813426   -0.9045936842    0.5139934791
C        3.0785122241   -1.1722139515    0.5815545022
C        1.8839043751   -2.3111932284    6.2347644545
C        0.6335979653   -0.9101546355    1.9134280494
C        3.0377476515   -1.1774153381    1.9811246561
C        1.9557371563   -2.2794311863    4.8376350007
C        1.6203225538   -1.1350756308    6.9461785235
C        1.4988218686    0.0953946049    4.8689439230
C        1.8176335017   -1.0384836922    2.6556548496
C        1.7730643706   -1.0726723899    4.1455982304
C        1.4249490585    0.0724461744    6.2666172832
Cl       1.0895557599    1.5344821162    7.1525980127
H        1.9259911904   -1.0306655205   -1.2383085176
H       -0.2486053376   -0.8017699753   -0.0535577284
H        4.0289876563   -1.2761798891    0.0660530713
H        2.0295999553   -3.2478021630    6.7655874664
H       -0.3165070722   -0.8162906160    2.4313508993
H        3.9559504021   -1.2869164171    2.5508225359
H        2.1520453482   -3.1911142469    4.2807019445
H        1.5627576219   -1.1542752626    8.0304431903
H        1.3443985058    1.0303092177    4.3392566050
22   

C        1.8883819783   -1.0377002251   -0.1529704039
C        0.6997887242   -0.7362207128    0.5200115744
C        3.0439142894   -1.3411601881    0.5746709807
C        2.0399530825   -2.2666774407    6.2409710490
C        0.6688184309   -0.7352966724    1.9196055650
C        3.0108237516   -1.3397566722    1.9744123828
C        2.1151954163   -2.2309898005    4.8441296267
C        1.6241952532   -1.1318996477    6.9462051077
C        1.3576010754    0.0652591898    4.8632906962
C        1.8270618177   -1.0272932529    2.6580241702
C        1.7857186150   -1.0595287318    4.1437948490
C        1.2792673849    0.0377318850    6.2605668420
Cl       0.7536888096    1.4476921721    7.1385364433
H        1.9131511858   -1.0391233161   -1.2390620234
H       -0.2004608993   -0.5062152628   -0.0426951728
H        3.9671753533   -1.5786683795    0.0539761912
H        2.2998632541   -3.1754840130    6.7764608336
H       -0.2585080911   -0.5118614232    2.4390070286
H        3.9096886568   -1.5763157347    2.5361467314
H        2.4256376807   -3.1152303307    4.2950882275
H        1.5631926545   -1.1546498271    8.0302130866
H        1.0886972275    0.9730059415    4.3322492827
22   

C        1.8896623971   -1.0423332983   -0.1568800953
C        0.7456826146   -0.6022899359    0.5155983498
C        2.9934645811   -1.4960504171    0.5714616591
C        2.1733428139   -2.2324636811    6.2549063529
C        0.7071759389   -0.6144591702    1.9149359956
C        2.9531049890   -1.5079979211    1.9708825016
C        2.2346862575   -2.2058628176    4.8571913082
C        1.6387032513   -1.1435465588    6.9508945886
C        1.2273513230   -0.0092898345    4.8568202377
C        1.8123664720   -1.0628142956    2.6584295290
C        1.7677294487   -1.0902956136    4.1416390383
C        1.1625864660   -0.0282524688    6.2548445368
Cl       0.4950897402    1.3279298984    7.1211245388
H        1.9202061608   -1.0329162339   -1.2427857790
H       -0.1153073440   -0.2537765986   -0.0476387874
H        3.8837956152   -1.8378090987    0.0514089186
H        2.5370627596   -3.0998289402    6.7986135929
H       -0.1919282444   -0.2829414096    2.4256452640
H        3.8195443748   -1.8545117167    2.5259705116
H        2.6378728282   -3.0610548992    4.3231126138
H        1.5887081105   -1.1595034958    8.0355880802
H        0.8631068324    0.8642343300    4.3257494057
22   

C        1.8912056234   -1.0397503732   -0.1596781793
C        0.8004882119   -0.4813483386    0.5107397905
C        2.9272513605   -1.6258478026    0.5711049623
C        2.2884851666   -2.1603332518    6.2804746988
C        0.7459671063   -0.5101844849    1.9093087604
C        2.8711050641   -1.6545728989    1.9696353750
C        2.3269167383   -2.1565655716    4.8817038118
C        1.6531990916   -1.1209378334    6.9648801595
C        1.0986381929   -0.0795034938    4.8563782148
C        1.7773603220   -1.1009347000    2.6615884441
C        1.7289932977   -1.1180829508    4.1453811169
C        1.0564493903   -0.0760705257    6.2553311388
Cl       0.2718873229    1.2261964943    7.1063033486
H        1.9342367543   -1.0167340372   -1.2449600677
H       -0.0083644118   -0.0265056380   -0.0539704034
H        3.7805002424   -2.0549443707    0.0536121795
H        2.7496659032   -2.9731098200    6.8345091759
H       -0.1216785503   -0.0839353345    2.4023367419
H        3.7005495838   -2.0959778321    2.5122748061
H        2.8109278302   -2.9834447433    4.3721736882
H        1.6213040460   -1.1193387377    8.0503763074
H        0.6480303248    0.7548902940    4.3302407172
22   

C        1.8980676428   -1.0331119683   -0.1731778737
C        0.8839436902   -0.3551732101    0.5031453674
C        2.8495584605   -1.7489970517    0.5530068879
C        2.4093030236   -2.0737045149    6.2947488891
C        0.8195491796   -0.3959394278    1.9010808049
C        2.7840480479   -1.7892599089    1.9507171340
C        2.4309130914   -2.0844159633    4.8956159343
C        1.6731219127   -1.1039913965    6.9762150511
C        0.9868922517   -0.1583876469    4.8624000427
C        1.7593974203   -1.1220681199    2.6572113154
C        1.7116182910   -1.1353078037    4.1449256150
C        0.9605247716   -0.1411366791    6.2616277940
Cl       0.0522231582    1.0823471498    7.1068197693
H        1.9484100832   -1.0008176434   -1.2579124362
H        0.1398835506    0.2038853996   -0.0571119844
H        3.6478797140   -2.2703111924    0.0325169123
H        2.9640300626   -2.8234061283    6.8519825592
H       -0.0010226380    0.1319857287    2.3722053644
H        3.5657250710   -2.3344226710    2.4659493232
H        3.0013187367   -2.8699844015    4.4143472809
H        1.6540048762   -1.0917492011    8.0619488688
H        0.4427106964    0.6293879008    4.3567416685
22   

C        1.8784171650   -1.0458569693   -0.1862066366
C        1.0060271802   -0.2077082426    0.5047600937
C        2.7142781106   -1.9009918180    0.5282931271
C        2.5507678427   -1.9574361817    6.3014593352
C        0.9693463852   -0.2243208145    1.9043124404
C        2.6769274206   -1.9169263919    1.9274394180
C        2.5905390630   -1.9439128906    4.9026564373
C        1.6757431029   -1.1164500542    6.9865284070
C        0.8840313825   -0.2522163118    4.8756588337
C        1.8012636599   -1.0769674580    2.6562394865
C        1.7601218999   -1.0926428854    4.1478339143
C        0.8386673591   -0.2601985405    6.2744908894
Cl      -0.2587672746    0.7949710579    7.1225291351
H        1.9065145964   -1.0326063323   -1.2721484341
H        0.3512007849    0.4618654511   -0.0456729780
H        3.3973493419   -2.5576185118   -0.0030176567
H        3.2037850227   -2.6253842805    6.8561989531
H        0.2653820605    0.4556820618    2.3649123816
H        3.3550120512   -2.6070209300    2.4112649821
H        3.2944073411   -2.6238054644    4.4415912701
H        1.6420115938   -1.1241000103    8.0719522413
H        0.2064462937    0.4373913163    4.3918091004
