22   

C        1.8654155138   -1.0660881688   -0.1744318575
C        1.1522272537   -0.0843873093    0.5133809866
C        2.5628535864   -2.0384036681    0.5420544769
C        2.6657754129   -1.8148238433    6.3045493846
C        1.1394482465   -0.0730449816    1.9132880421
C        2.5495687745   -2.0259415599    1.9417598671
C        2.7295918291   -1.7829406733    4.9070282501
C        1.6636544698   -1.1135371768    6.9758558289
C        0.7918042674   -0.3553016057    4.8549482045
C        1.8458659547   -1.0347861920    2.6605102600
C        1.8023724922   -1.0437055815    4.1483916348
C        0.7214028513   -0.3824906375    6.2524945823
Cl      -0.5422101132    0.4823596311    7.0841136653
H        1.8746742307   -1.0752702101   -1.2607358305
H        0.6073074574    0.6756755154   -0.0392737697
H        3.1114778403   -2.8117609215    0.0120308127
H        3.3994022556   -2.3839480092    6.8686179424
H        0.5858650108    0.7243757373    2.3946061420
H        3.0826898258   -2.8219905540    2.4475001324
H        3.5384776921   -2.3277992617    4.4348710906
H        1.6101827018   -1.1359660576    8.0602777897
H        0.0182896974    0.2009924502    4.3405298437
22   

C        1.8817760093   -1.0657623566   -0.1571828493
C        1.2826816678   -0.0050981183    0.5261877565
C        2.4482690333   -2.1209077445    0.5616135164
C        2.7324617437   -1.6791330058    6.3070251413
C        1.2513589074    0.0003645067    1.9257567691
C        2.4167968271   -2.1137790517    1.9611908250
C        2.7884021354   -1.6678720082    4.9088814893
C        1.6576261187   -1.0792145329    6.9682457725
C        0.6999746365   -0.4606633039    4.8379388118
C        1.8215456537   -1.0507702391    2.6664203553
C        1.7750222552   -1.0547873246    4.1503950299
C        0.6368203511   -0.4682792313    6.2360807793
Cl      -0.7093919359    0.2722227548    7.0576376518
H        1.9054522798   -1.0707514829   -1.2432910302
H        0.8428584139    0.8184883017   -0.0290439824
H        2.9088915166   -2.9510049740    0.0336691189
H        3.5263896335   -2.1513816612    6.8787830344
H        0.7943844169    0.8456716285    2.4299462768
H        2.8443063716   -2.9573672875    2.4930409035
H        3.6417582292   -2.1249639453    4.4185095432
H        1.6096820096   -1.0859524932    8.0531314148
H       -0.1165377712   -0.0001427363    4.2926732180
22   

C        1.8897909314   -1.0596315930   -0.1503375391
C        1.4065579098    0.0545725329    0.5422192699
C        2.3239444391   -2.1843497315    0.5576556848
C        2.7969489108   -1.5620490375    6.2942062579
C        1.3560480750    0.0424516740    1.9411845361
C        2.2731627000   -2.1946576167    1.9567401344
C        2.8332146591   -1.5736498270    4.8954165028
C        1.6720145478   -1.0636575811    6.9590704516
C        0.6272955356   -0.5893274693    4.8319910747
C        1.7841173881   -1.0842979898    2.6639067469
C        1.7452959146   -1.0927938592    4.1473274417
C        0.5833041937   -0.5743106804    6.2308788934
Cl      -0.8177435480    0.0481561709    7.0584146532
H        1.9290496718   -1.0508598924   -1.2359677887
H        1.0731331548    0.9317506933   -0.0049419656
H        2.6992285619   -3.0516025594    0.0219513143
H        3.6434973563   -1.9361669489    6.8630874954
H        0.9914671765    0.9189959708    2.4683154312
H        2.6051261176   -3.0769471943    2.4955151953
H        3.7160034962   -1.9487881203    4.3863912646
H        1.6391591113   -1.0522547822    8.0444766849
H       -0.2259877901   -0.2151779568    4.2755084299
22   

C        1.8856313688   -1.0595685998   -0.1460376149
C        1.5406184660    0.1011607711    0.5541213497
C        2.1699740958   -2.2371639662    0.5534027727
C        2.8303647190   -1.4267497649    6.2874853391
C        1.4770951358    0.0822081567    1.9524893762
C        2.1059456431   -2.2540032926    1.9519680455
C        2.8579240961   -1.4524009743    4.8886683277
C        1.6604413045   -1.0480201372    6.9551466605
C        0.5543647471   -0.7193782092    4.8311528446
C        1.7495135613   -1.0986058406    2.6620860418
C        1.7150827967   -1.1100584424    4.1483505031
C        0.5185938096   -0.6907312831    6.2301415852
Cl      -0.9352230522   -0.2112167886    7.0617294908
H        1.9356202756   -1.0455957641   -1.2311717107
H        1.3253187951    1.0185160505    0.0136628334
H        2.4412029619   -3.1388242595    0.0117485947
H        3.7173673281   -1.6963666067    6.8538456930
H        1.2199168401    0.9881119994    2.4936297894
H        2.3278096226   -3.1698799186    2.4917921816
H        3.7693710425   -1.7340205573    4.3693836304
H        1.6340808708   -1.0255581206    8.0405558092
H       -0.3318890392   -0.4409199946    4.2696070828
22   

C        1.8868793418   -1.0679245403   -0.1450529113
C        1.7114089322    0.1298717156    0.5563532191
C        2.0050560597   -2.2746260023    0.5532679625
C        2.8667304968   -1.2676079759    6.2912661493
C        1.6518194828    0.1191497109    1.9550143484
C        1.9450561228   -2.2828096835    1.9521305531
C        2.9005042663   -1.2904607791    4.8925173744
C        1.6558381302   -1.0417350268    6.9557740311
C        0.5214067960   -0.8600951142    4.8288795977
C        1.7601612421   -1.0886231026    2.6611787249
C        1.7249479228   -1.0963011851    4.1517417739
C        0.4787525266   -0.8353017968    6.2278145603
Cl      -1.0266956363   -0.5468191526    7.0557075107
H        1.9336689609   -1.0606678294   -1.2303947804
H        1.6236664822    1.0685358147    0.0167294016
H        2.1443705432   -3.2053170254    0.0107189112
H        3.7794913015   -1.4220102670    6.8598276444
H        1.5225012578    1.0494891982    2.5004481811
H        2.0393455408   -3.2191918829    2.4942945950
H        3.8393015372   -1.4573407724    4.3722403807
H        1.6241542509   -1.0222375130    8.0410977745
H       -0.3898104107   -0.6969806739    4.2618175185
22   

C        1.8770476457   -1.0790290864   -0.1465643544
C        1.9016238269    0.1358288221    0.5471119640
C        1.8125644513   -2.2849798594    0.5601396427
C        2.8893632338   -1.0907735349    6.3028693044
C        1.8618624204    0.1430628137    1.9465281020
C        1.7729044326   -2.2749138807    1.9597074085
C        2.9384748042   -1.0969406571    4.9043882578
C        1.6527462649   -1.0437505105    6.9567087141
C        0.5233633394   -1.0093515801    4.8197192429
C        1.7974820640   -1.0625048667    2.6608618016
C        1.7546367197   -1.0562277842    4.1535174278
C        0.4647954536   -1.0028530772    6.2182965277
Cl      -1.0740684645   -0.9443514072    7.0328368496
H        1.9075192191   -1.0859042076   -1.2324888116
H        1.9510866343    1.0734274933    0.0008188313
H        1.7928031596   -3.2292925135    0.0236256662
H        3.8095818663   -1.1224349049    6.8794395285
H        1.8802449196    1.0852815381    2.4865289538
H        1.7222295665   -3.2105621831    2.5090049927
H        3.8954001552   -1.1333551678    4.3916877975
H        1.6087908568   -1.0387552360    8.0417682522
H       -0.3963963198   -0.9776984495    4.2438936774
22   

C        1.8730286557   -1.0909161996   -0.1472297763
C        2.0888608853    0.1088211919    0.5392719395
C        1.6241872577   -2.2680807001    0.5667786893
C        2.8687713203   -0.9165684867    6.3128432249
C        2.0583118205    0.1291716269    1.9387864214
C        1.5942185837   -2.2448973719    1.9663982758
C        2.9311753123   -0.9102793640    4.9149019638
C        1.6320433798   -1.0465407844    6.9548329127
C        0.5293716754   -1.1658425104    4.8070950411
C        1.8187629009   -1.0492129978    2.6618444988
C        1.7598458739   -1.0256666352    4.1515139173
C        0.4575640519   -1.1734183036    6.2050133927
Cl      -1.0810095191   -1.3420742592    7.0046068942
H        1.8956770057   -1.1078676882   -1.2332352957
H        2.2773320166    1.0251475677   -0.0128044050
H        1.4526486787   -3.2001113738    0.0358666333
H        3.7792007360   -0.8234473857    6.8982348780
H        2.2185645336    1.0616501386    2.4721004496
H        1.3980578398   -3.1584984810    2.5201413835
H        3.8896241774   -0.8171910584    4.4123534870
H        1.5778633366   -1.0526436062    8.0394239195
H       -0.3804252665   -1.2668505380    4.2234977821
22   

C        1.8693702303   -1.0924804407   -0.1504264853
C        2.2486185134    0.0630493713    0.5404289456
C        1.4552090936   -2.2245105305    0.5591850054
C        2.8387937552   -0.7581367880    6.3065432446
C        2.2164639975    0.0840298570    1.9398600882
C        1.4236721798   -2.2012759038    1.9587292955
C        2.8980574286   -0.7532402354    4.9084903479
C        1.6299335092   -1.0399242736    6.9522657468
C        0.5484448878   -1.3134638897    4.8079713598
C        1.8127546079   -1.0512419071    2.6610595672
C        1.7496278639   -1.0200745335    4.1461833151
C        0.4805133310   -1.3207015641    6.2060301627
Cl      -1.0228582322   -1.6787142539    7.0102468288
H        1.8933023276   -1.1096788343   -1.2364011296
H        2.5645914271    0.9455759777   -0.0084442843
H        1.1570266963   -3.1219804002    0.0247524031
H        3.7310336473   -0.5472801015    6.8893625813
H        2.5011412804    0.9860640306    2.4734733637
H        1.1013561912   -3.0826043107    2.5055636332
H        3.8385015746   -0.5460192860    4.4061711776
H        1.5786007415   -1.0456855611    8.0369975498
H       -0.3444850742   -1.5315927870    4.2305425317
22   

C        1.8714669552   -1.0859075175   -0.1512554673
C        2.3879989057    0.0067125353    0.5515144194
C        1.3147605475   -2.1618033725    0.5467451943
C        2.8069736903   -0.6236025107    6.3006282480
C        2.3490331427    0.0215750458    1.9508241655
C        1.2761207917   -2.1451449567    1.9461449981
C        2.8568930247   -0.6267729449    4.9022175546
C        1.6425383184   -1.0328718398    6.9583099135
C        0.5855647452   -1.4481429120    4.8249236422
C        1.7967097633   -1.0559966020    2.6642813309
C        1.7438329276   -1.0338390520    4.1472658351
C        0.5277209173   -1.4476930654    6.2233755996
Cl      -0.9228431342   -1.9585016605    7.0420193476
H        1.9012309234   -1.0982840922   -1.2371529988
H        2.8166189102    0.8462470430    0.0116819994
H        0.9132375435   -3.0123239772    0.0032490048
H        3.6731820432   -0.3070595409    6.8748335775
H        2.7412276722    0.8809518417    2.4861595554
H        0.8491495537   -2.9909967181    2.4765614002
H        3.7688378469   -0.3207593728    4.3983248870
H        1.5988189588   -1.0322999299    8.0433905480
H       -0.2880410938   -1.7632480528    4.2634506441
22   

C        1.9240261082   -1.0574349591   -0.1569309238
C        1.4077332861   -2.1643854048    0.5207306194
C        2.3712762423    0.0507854727    0.5661471369
C        0.6237510875   -1.7473963938    6.2200375207
C        1.3402876313   -2.1631384872    1.9190909397
C        2.3039031595    0.0506149375    1.9644162451
C        0.6905682263   -1.7505492517    4.8223177582
C        1.5760808370   -1.0456516774    6.9636239396
C        2.6567455809   -0.3549056652    4.9160472783
C        1.7917720734   -1.0585517889    2.6638525530
C        1.7058053476   -1.0507126246    4.1459949538
C        2.5968423480   -0.3472869769    6.3143286692
Cl       3.7912925668    0.5208793033    7.2390715938
H        1.9761790409   -1.0577292842   -1.2420562337
H        1.0610872191   -3.0289422868   -0.0381404417
H        2.7671329753    0.9163560832    0.0425991256
H       -0.1706364935   -2.2877296197    6.7272240084
H        0.9504658600   -3.0433274884    2.4196600501
H        2.6374398429    0.9341349709    2.4989604146
H       -0.0706774358   -2.2883835323    4.2666365896
H        1.5284385502   -1.0406442947    8.0485336656
H        3.4721118155    0.1759586121    4.4369666109
22   

C        1.9156444484   -1.0542978572   -0.1662575633
C        1.2709782856   -2.0915270985    0.5077698027
C        2.4950779507   -0.0158041750    0.5625104895
C        0.7185245425   -1.8558913525    6.2391497554
C        1.2098223391   -2.0926732371    1.9065387034
C        2.4336016426   -0.0179134385    1.9609020780
C        0.7809404749   -1.8549160517    4.8411146162
C        1.5880799363   -1.0544037480    6.9797542188
C        2.5811417031   -0.2583031613    4.9273793005
C        1.8001875817   -1.0645926496    2.6658985752
C        1.7043515320   -1.0469758786    4.1511526046
C        2.5246975501   -0.2539988866    6.3257402513
Cl       3.6247270410    0.7363866224    7.2451336775
H        1.9627829096   -1.0532317706   -1.2516169595
H        0.8175686795   -2.9025497730   -0.0549556468
H        2.9887262336    0.8006284300    0.0430810657
H       -0.0102990879   -2.4793371237    6.7494622663
H        0.7135396293   -2.9328580417    2.3769508939
H        2.8717589256    0.8285110120    2.4764716020
H        0.0704106262   -2.4803817649    4.3141090108
H        1.5429127402   -1.0524919607    8.0647838568
H        3.3463412166    0.3552190137    4.4682297103
22   

C        1.9066897639   -1.0512420793   -0.1814875692
C        1.1046496839   -1.9741638359    0.4866264874
C        2.6490889960   -0.1307510286    0.5549118233
C        0.8516739268   -1.9949097837    6.2463883573
C        1.0447041234   -1.9772421068    1.8855660477
C        2.5889504759   -0.1340584025    1.9532761456
C        0.9131400034   -1.9899804494    4.8482249835
C        1.5934333171   -1.0745798878    6.9849147051
C        2.4552891200   -0.1477294696    4.9289771385
C        1.7831880809   -1.0595884639    2.6581512216
C        1.7155819753   -1.0676806849    4.1487511403
C        2.3985610057   -0.1469637674    6.3273484591
Cl       3.3294168234    1.0075404799    7.2424803042
H        1.9528253862   -1.0493393586   -1.2668931042
H        0.5232280373   -2.6946606362   -0.0815955101
H        3.2768697143    0.5920529672    0.0415464096
H        0.2237883368   -2.7183098825    6.7590148634
H        0.3992692507   -2.7247019214    2.3263737746
H        3.1928554994    0.6098623535    2.4556234613
H        0.3093224666   -2.7342625329    4.3468612951
H        1.5479746775   -1.0756903177    8.0699381698
H        3.0998822103    0.5991728399    4.4867137955
22   

C        1.9088803842   -1.0314827728   -0.1735918120
C        0.9646763710   -1.8224465964    0.4811012881
C        2.7932606935   -0.2547461746    0.5746719045
C        0.9965257442   -2.1238573726    6.2350906204
C        0.9020282450   -1.8333067174    1.8797617453
C        2.7297181784   -0.2660479701    1.9729326035
C        1.0591569178   -2.1112358131    4.8371189776
C        1.5965060834   -1.1024138947    6.9724765136
C        2.3147984661   -0.0581861413    4.9167786612
C        1.7727584943   -1.0465709340    2.6575503920
C        1.7304121220   -1.0857127287    4.1448657394
C        2.2562160855   -0.0640210054    6.3150452413
Cl       2.9928639814    1.2234319287    7.2293845153
H        1.9577451279   -1.0234076179   -1.2588460580
H        0.2738187495   -2.4296637924   -0.0968289205
H        3.5382727404    0.3546410216    0.0710252769
H        0.4825449875   -2.9319184419    6.7480713853
H        0.1365869101   -2.4511886014    2.3334195101
H        3.4604049795    0.3305950545    2.5061847682
H        0.5938166544   -2.9380283350    4.3139983976
H        1.5498655393   -1.1085166399    8.0574287051
H        2.8100489849    0.7856817280    4.4526751977
22   

C        1.9067261658   -1.0300454241   -0.1593753069
C        0.8725293752   -1.7061608110    0.4920845067
C        2.8817990125   -0.3680516804    0.5902976362
C        1.1245250008   -2.1862754239    6.2345777077
C        0.8132419300   -1.7187954840    1.8907538739
C        2.8210953324   -0.3808800147    1.9888165796
C        1.1819078091   -2.1745217916    4.8364758645
C        1.6113070169   -1.0979219463    6.9631948977
C        2.2089674006    0.0081469461    4.8999777381
C        1.7828766061   -1.0524508686    2.6617666373
C        1.7291517812   -1.0788016672    4.1451978944
C        2.1547323692    0.0039518793    6.2984914891
Cl       2.7538833234    1.3665759749    7.2039533472
H        1.9534344545   -1.0202973822   -1.2447048546
H        0.1111678882   -2.2201812232   -0.0876329277
H        3.6915210917    0.1531536783    0.0875933317
H        0.7046356405   -3.0431318865    6.7539395999
H       -0.0107240861   -2.2375042651    2.3695900489
H        3.6046449018    0.1226434990    2.5456873036
H        0.8135459595   -3.0389466669    4.2936856955
H        1.5685479816   -1.1024611217    8.0483086085
H        2.6144639264    0.8850562493    4.4072692834
22   

C        1.9147952322   -1.0232893512   -0.1566820223
C        0.8042068332   -1.5818391333    0.4829401006
C        2.9588959492   -0.4877101275    0.6033752061
C        1.2366768364   -2.2518686188    6.2268470651
C        0.7396445688   -1.6059214805    1.8811715718
C        2.8925429812   -0.5121434192    2.0016227310
C        1.2895635568   -2.2390873059    4.8286056275
C        1.6090428239   -1.1140092844    6.9497172292
C        2.0866977154    0.0414985400    4.8814650870
C        1.7849248260   -1.0753860717    2.6565474456
C        1.7099504169   -1.0893605757    4.1386937575
C        2.0364513144    0.0366812102    6.2802090062
Cl       2.5013205900    1.4541931943    7.1800926263
H        1.9657327136   -1.0041114307   -1.2416935428
H       -0.0107559223   -1.9942026244   -0.1050609695
H        3.8232845897   -0.0536396872    0.1089982054
H        0.9102280615   -3.1460510913    6.7503912628
H       -0.1334129369   -2.0303979128    2.3675040316
H        3.7141766499   -0.1009410404    2.5803641613
H        1.0120432658   -3.1305852840    4.2741610128
H        1.5698466439   -1.1189201609    8.0349603112
H        2.4111732145    0.9424958914    4.3709273939
22   

C        1.9206544874   -1.0214180223   -0.1551124072
C        0.7461599406   -1.4430423187    0.4766871632
C        3.0222177318   -0.6281007183    0.6119887094
C        1.3713713589   -2.2834181638    6.2362282261
C        0.6758037405   -1.4740365758    1.8745322644
C        2.9496358209   -0.6597324118    2.0098392585
C        1.4162901045   -2.2798422720    4.8376390444
C        1.6161262371   -1.1020057392    6.9447885173
C        1.9521516340    0.0774601783    4.8619059561
C        1.7803512185   -1.0916433592    2.6528279085
C        1.6962753894   -1.0956750306    4.1372228300
C        1.9094716398    0.0825681617    6.2609740869
Cl       2.2213857348    1.5518280081    7.1436114306
H        1.9761485560   -0.9963370912   -1.2397782988
H       -0.1128371843   -1.7429601042   -0.1167159535
H        3.9342879723   -0.2971047117    0.1235705550
H        1.1506303716   -3.2030371845    6.7708366787
H       -0.2409622815   -1.7915396150    2.3625716388
H        3.8074255020   -0.3533878562    2.6014518363
H        1.2378720294   -3.1988159629    4.2868627692
H        1.5831733711   -1.0994137317    8.0302460315
H        2.1799660313    0.9976001287    4.3329720284
22   

C        1.9192445362   -1.0249284105   -0.1524258104
C        0.6987359623   -1.2834428661    0.4806393190
C        3.0676465761   -0.7966251778    0.6134059854
C        1.5297352428   -2.3117811016    6.2465354358
C        0.6289114095   -1.3160455670    1.8785134933
C        2.9949966831   -0.8298396429    2.0112569046
C        1.5732877159   -2.3113380562    4.8478669039
C        1.6226735750   -1.1039199390    6.9472274221
C        1.8045157073    0.0953264821    4.8563789428
C        1.7783251658   -1.0974185842    2.6530004908
C        1.7017855179   -1.1057792903    4.1420287539
C        1.7621397183    0.1042933053    6.2554915840
Cl       1.8846835021    1.6069844396    7.1283627553
H        1.9745731541   -0.9985623091   -1.2370694932
H       -0.1953900403   -1.4560992519   -0.1115530269
H        4.0156833788   -0.5920414757    0.1241758419
H        1.4267056624   -3.2484963578    6.7870781996
H       -0.3197872074   -1.5094695908    2.3706305429
H        3.8862507273   -0.6496054856    2.6053607759
H        1.5090689986   -3.2471148138    4.3001056372
H        1.5900378021   -1.0984921996    8.0326839644
H        1.9153685388    1.0314086605    4.3178803935
22   

C        1.9066782918   -1.0356907404   -0.1520775645
C        0.6687636285   -1.1029635194    0.4965345652
C        3.0863557405   -0.9889245647    0.5989535388
C        1.7064707099   -2.3235023856    6.2452077049
C        0.6122555796   -1.1235409782    1.8952476467
C        3.0269455823   -1.0096379275    1.9976994934
C        1.7616368403   -2.3127821488    4.8469766542
C        1.6219412449   -1.1165076186    6.9487184217
C        1.6479341223    0.1025515423    4.8614924565
C        1.7912002247   -1.0771869095    2.6538733323
C        1.7327031871   -1.0985959668    4.1458371986
C        1.5923063472    0.1013520294    6.2602018754
Cl       1.4870807319    1.6033678355    7.1364862965
H        1.9518029063   -1.0193156222   -1.2373898175
H       -0.2485465681   -1.1387931050   -0.0841815138
H        4.0485166764   -0.9360981969    0.0975347701
H        1.7292481297   -3.2671150895    6.7830871610
H       -0.3479404826   -1.1751178631    2.4002994433
H        3.9421799954   -0.9727440948    2.5814124334
H        1.8273113116   -3.2465225946    4.2958792899
H        1.5788645740   -1.1189558381    8.0338219009
H        1.6251473129    1.0456660995    4.3243209381
22   

C        1.8952323812   -1.0344708079   -0.1523768835
C        0.6718799188   -0.9046046747    0.5139933905
C        3.0785079924   -1.1722492806    0.5815539721
C        1.8839037448   -2.3111933655    6.2347644202
C        0.6335979653   -0.9101546355    1.9134280494
C        3.0377446290   -1.1774403789    1.9811241930
C        1.9557371563   -2.2794311863    4.8376350007
C        1.6203210203   -1.1350759525    6.9461784537
C        1.4988204358    0.0953943085    4.8689438689
C        1.8176335017   -1.0384836922    2.6556548496
C        1.7730643706   -1.0726723899    4.1455982304
C        1.4249470401    0.0724457583    6.2666171964
Cl       1.0895524250    1.5344814386    7.1525978649
H        1.9259869223   -1.0307000739   -1.2383089488
H       -0.2486064736   -0.8017774350   -0.0535576430
H        4.0289817339   -1.2762299506    0.0660523953
H        2.0295994697   -3.2478022791    6.7655874314
H       -0.3165059666   -0.8162802347    2.4313510438
H        3.9559465310   -1.2869497223    2.5508218510
H        2.1520458028   -3.1911141982    4.2807020244
H        1.5627556600   -1.1542756686    8.0304430952
H        1.3443966294    1.0303088599    4.3392565794
22   

C        1.8883708154   -1.0377397715   -0.1529711376
C        0.6997839746   -0.7362367738    0.5200114744
C        3.0439000429   -1.3412119632    0.5746698595
C        2.0399529242   -2.2666774766    6.2409710451
C        0.6688184309   -0.7352966724    1.9196055650
C        3.0108137077   -1.3397933907    1.9744113317
C        2.1151954163   -2.2309898005    4.8441296267
C        1.6241947567   -1.1318998279    6.9462051111
C        1.3576004403    0.0652589631    4.8632907153
C        1.8270618177   -1.0272932529    2.6580241702
C        1.7857186150   -1.0595287318    4.1437948490
C        1.2792665757    0.0377315942    6.2605668472
Cl       0.7536874205    1.4476916747    7.1385364327
H        1.9131368077   -1.0391738552   -1.2390628163
H       -0.2004645912   -0.5062260614   -0.0426948093
H        3.9671553804   -1.5787417164    0.0539747497
H        2.2998631401   -3.1754840320    6.7764608361
H       -0.2585042907   -0.5118462026    2.4390072500
H        3.9096758966   -1.5763645486    2.5361449166
H        2.4256375275   -3.1152306163    4.2950886205
H        1.5631920447   -1.1546500716    8.0302130826
H        1.0886964070    0.9730057110    4.3322494024
22   

C        1.8896456305   -1.0423716968   -0.1568816433
C        0.7456755203   -0.6023054287    0.5155980218
C        2.9934432190   -1.4961009163    0.5714593018
C        2.1733432859   -2.2324633124    6.2549064042
C        0.7071759389   -0.6144591702    1.9149359956
C        2.9530900970   -1.5080339191    1.9708804480
C        2.2346862575   -2.2058628176    4.8571913082
C        1.6387043680   -1.1435459230    6.9508946845
C        1.2273521926   -0.0092894130    4.8568203366
C        1.8123664720   -1.0628142956    2.6584295290
C        1.7677294487   -1.0902956136    4.1416390383
C        1.1625877997   -0.0282517767    6.2548446425
Cl       0.4950919748    1.3279310351    7.1211246505
H        1.9201845493   -1.0329652501   -1.2427875561
H       -0.1153127855   -0.2537868335   -0.0476383862
H        3.8837656656   -1.8378806195    0.0514056728
H        2.5370630005   -3.0998286356    6.7986137008
H       -0.1919225167   -0.2829265057    2.4256456259
H        3.8195258449   -1.8545596087    2.5259666442
H        2.6378718524   -3.0610559571    4.3231136585
H        1.5887095424   -1.1595027086    8.0355881930
H        0.8631081057    0.8642350234    4.3257497023
22   

C        1.8911876836   -1.0397806794   -0.1596802736
C        0.8004807192   -0.4813604160    0.5107392578
C        2.9272283896   -1.6258880646    0.5711017872
C        2.2884858930   -2.1603326421    6.2804747470
C        0.7459671063   -0.5101844849    1.9093087604
C        2.8710891192   -1.6546018928    1.9696327096
C        2.3269167383   -2.1565655716    4.8817038118
C        1.6532009003   -1.1209366762    6.9648803017
C        1.0986396309   -0.0795026513    4.8563783980
C        1.7773603220   -1.1009347000    2.6615884441
C        1.7289932977   -1.1180829508    4.1453811169
C        1.0564515731   -0.0760692060    6.2553313225
Cl       0.2718909763    1.2261986797    7.1063035659
H        1.9342136892   -1.0167725508   -1.2449625393
H       -0.0083699611   -0.0265132682   -0.0539701345
H        3.7804680206   -2.0550014492    0.0536076941
H        2.7496662998   -2.9731093719    6.8345092601
H       -0.1216723801   -0.0839233139    2.4023371076
H        3.7005299820   -2.0960168254    2.5122694230
H        2.8109267448   -2.9834462813    4.3721753680
H        1.6213064325   -1.1193372800    8.0503764667
H        0.6480322923    0.7548916228    4.3302412812
22   

C        1.8980531254   -1.0331308580   -0.1731795812
C        0.8839377379   -0.3551806629    0.5031448819
C        2.8495396048   -1.7490224275    0.5530043255
C        2.4093031093   -2.0737043882    6.2947489145
C        0.8195491796   -0.3959394278    1.9010808049
C        2.7840348024   -1.7892784430    1.9507150327
C        2.4309130914   -2.0844159633    4.8956159343
C        1.6731223382   -1.1039911463    6.9762151864
C        0.9868927891   -0.1583872990    4.8624002644
C        1.7593974203   -1.1220681199    2.6572113154
C        1.7116182910   -1.1353078037    4.1449256150
C        0.9605254547   -0.1411362601    6.2616280034
Cl       0.0522243114    1.0823478878    7.1068200387
H        1.9483915004   -1.0008415644   -1.2579144814
H        0.1398794075    0.2038809320   -0.0571118963
H        3.6478531178   -2.2703473175    0.0325132381
H        2.9640300666   -2.8234060711    6.8519825809
H       -0.0010173352    0.1319936717    2.3722055740
H        3.5657080180   -2.3344486257    2.4659449471
H        3.0013190301   -2.8699848974    4.4143486931
H        1.6540054345   -1.0917489587    8.0619490063
H        0.4427113079    0.6293885554    4.3567423703
22   

C        1.8784171743   -1.0458569641   -0.1862066324
C        1.0060271800   -0.2077082437    0.5047600923
C        2.7142781275   -1.9009918020    0.5282931319
C        2.5507678359   -1.9574362047    6.3014593369
C        0.9693463852   -0.2243208145    1.9043124404
C        2.6769274326   -1.9169263784    1.9274394194
C        2.5905390630   -1.9439128906    4.9026564373
C        1.6757430989   -1.1164500720    6.9865284080
C        0.8840314068   -0.2522162902    4.8756588351
C        1.8012636599   -1.0769674580    2.6562394865
C        1.7601218999   -1.0926428854    4.1478339143
C        0.8386673796   -0.2601985341    6.2744908897
Cl      -0.2587672413    0.7949710761    7.1225291318
H        1.9065146163   -1.0326063394   -1.2721484287
H        0.3512007809    0.4618654392   -0.0456729906
H        3.3973493725   -2.5576184906   -0.0030176426
H        3.2037849961   -2.6253843222    6.8561989596
H        0.2653820469    0.4556820564    2.3649123703
H        3.3550120737   -2.6070209046    2.4112649849
H        3.2944073336   -2.6238054750    4.4415912742
H        1.6420115668   -1.1241000345    8.0719522398
H        0.2064463446    0.4373913721    4.3918091116
