22   

C        1.8654123276   -1.0660906612   -0.1744317791
C        1.1522260046   -0.0843883175    0.5133809842
C        2.5628493196   -2.0384068974    0.5420546343
C        2.6657753130   -1.8148239844    6.3045493746
C        1.1394482465   -0.0730449816    1.9132880421
C        2.5495656945   -2.0259438092    1.9417600260
C        2.7295918291   -1.7829406733    4.9070282501
C        1.6636541838   -1.1135375206    6.9758557728
C        0.7918039643   -0.3553020029    4.8549481218
C        1.8458659547   -1.0347861920    2.6605102600
C        1.8023724922   -1.0437055815    4.1483916348
C        0.7214024513   -0.3824911356    6.2524944938
Cl      -0.5422107496    0.4823588287    7.0841135326
H        1.8746701773   -1.0752734203   -1.2607357525
H        0.6073067218    0.6756748284   -0.0392738360
H        3.1114717371   -2.8117654999    0.0120310415
H        3.3994021947   -2.3839480880    6.8686179479
H        0.5858663542    0.7243766340    2.3946062298
H        3.0826855158   -2.8219934465    2.4475006114
H        3.5384777491   -2.3277990225    4.4348708657
H        1.6101823391   -1.1359664544    8.0602777281
H        0.0182893316    0.2009918654    4.3405296278
22   

C        1.8817697177   -1.0657661906   -0.1571828069
C        1.2826791588   -0.0050997203    0.5261877058
C        2.4482607102   -2.1209126317    0.5616136641
C        2.7324616870   -1.6791332007    6.3070251276
C        1.2513589074    0.0003645067    1.9257567691
C        2.4167908441   -2.1137824353    1.9611910165
C        2.7884021354   -1.6678720082    4.9088814893
C        1.6576259143   -1.0792149655    6.9682457438
C        0.6999744365   -0.4606636519    4.8379387650
C        1.8215456537   -1.0507702391    2.6664203553
C        1.7750222552   -1.0547873246    4.1503950299
C        0.6368200785   -0.4682797485    6.2360807397
Cl      -0.7093923630    0.2722219394    7.0576376197
H        1.9054442594   -1.0707564321   -1.2432910200
H        0.8428568199    0.8184871100   -0.0290441486
H        2.9088797137   -2.9510118323    0.0336693306
H        3.5263896011   -2.1513818456    6.8787829986
H        0.7943868995    0.8456729177    2.4299463906
H        2.8442983004   -2.9573714608    2.4930415593
H        3.6417580783   -2.1249638725    4.4185091640
H        1.6096817262   -1.0859530843    8.0531313835
H       -0.1165379230   -0.0001430941    4.2926730702
22   

C        1.8897808354   -1.0596361659   -0.1503377366
C        1.4065538308    0.0545705895    0.5422191025
C        2.3239312006   -2.1843555318    0.5576555224
C        2.7969489372   -1.5620490328    6.2942062508
C        1.3560480750    0.0424516740    1.9411845361
C        2.2731532825   -2.1946616475    1.9567401225
C        2.8332146591   -1.5736498270    4.8954165028
C        1.6720145237   -1.0636576610    6.9590704302
C        0.6272954313   -0.5893277002    4.8319910408
C        1.7841173881   -1.0842979898    2.6639067469
C        1.7452959146   -1.0927938592    4.1473274417
C        0.5833040996   -0.5743109047    6.2308788663
Cl      -0.8177436717    0.0481558418    7.0584146467
H        1.9290367734   -1.0508657907   -1.2359680986
H        1.0731304533    0.9317491866   -0.0049422703
H        2.6992098149   -3.0516106893    0.0219510641
H        3.6434974076   -1.9361668970    6.8630874782
H        0.9914710812    0.9189975215    2.4683155664
H        2.6051135704   -3.0769522211    2.4955154979
H        3.7160033139   -1.9487881944    4.3863909782
H        1.6391590885   -1.0522548339    8.0444766633
H       -0.2259878744   -0.2151782447    4.2755083213
22   

C        1.8856187721   -1.0595722907   -0.1460380762
C        1.5406133572    0.1011592080    0.5541210994
C        2.1699575727   -2.2371686955    0.5534022187
C        2.8303646845   -1.4267498654    6.2874853351
C        1.4770951358    0.0822081567    1.9524893762
C        2.1059339052   -2.2540066387    1.9519677331
C        2.8579240961   -1.4524009743    4.8886683277
C        1.6604411690   -1.0480205110    6.9551466409
C        0.5543645898   -0.7193786677    4.8311528231
C        1.7495135613   -1.0986058406    2.6620860418
C        1.7150827967   -1.1100584424    4.1483505031
C        0.5185935999   -0.6907318699    6.2301415658
Cl      -0.9352233930   -0.2112177613    7.0617294740
H        1.9356041822   -1.0456005065   -1.2311723471
H        1.3253153635    1.0185148491    0.0136625274
H        2.4411795595   -3.1388308905    0.0117477598
H        3.7173673316   -1.6963665808    6.8538456914
H        1.2199216973    0.9881132685    2.4936299783
H        2.3277940068   -3.1698841851    2.4917919058
H        3.7693710031   -1.7340204667    4.3693835054
H        1.6340807008   -1.0255585797    8.0405557871
H       -0.3318892206   -0.4409206056    4.2696070225
22   

C        1.8868692127   -1.0679259399   -0.1450532733
C        1.7114047968    0.1298711038    0.5563530381
C        2.0050428595   -2.2746277669    0.5532675155
C        2.8667304633   -1.2676081086    6.2912661504
C        1.6518194828    0.1191497109    1.9550143484
C        1.9450467898   -2.2828109256    1.9521302727
C        2.9005042663   -1.2904607791    4.8925173744
C        1.6558380429   -1.0417354072    6.9557740248
C        0.5214067096   -0.8600955280    4.8288795895
C        1.7601612421   -1.0886231026    2.6611787249
C        1.7249479228   -1.0963011851    4.1517417739
C        0.4787524076   -0.8353023518    6.2278145516
Cl      -1.0266958307   -0.5468200898    7.0557074993
H        1.9336560037   -1.0606696383   -1.2303952664
H        1.6236636696    1.0685353141    0.0167292003
H        2.1443518597   -3.2053194905    0.0107182591
H        3.7794912802   -1.4220103194    6.8598276483
H        1.5225051382    1.0494896639    2.5004483075
H        2.0393331427   -3.2191934627    2.4942942649
H        3.8393015487   -1.4573406590    4.3722403655
H        1.6241541444   -1.0222379837    8.0410977684
H       -0.3898105159   -0.6969812171    4.2618174989
22   

C        1.8770476030   -1.0790290902   -0.1465643570
C        1.9016238077    0.1358288195    0.5471119628
C        1.8125644214   -2.2849798640    0.5601396422
C        2.8893632225   -1.0907735587    6.3028693037
C        1.8618624204    0.1430628137    1.9465281020
C        1.7729044287   -2.2749138813    1.9597074087
C        2.9384748042   -1.0969406571    4.9043882578
C        1.6527462466   -1.0437505777    6.9567087050
C        0.5233633342   -1.0093516052    4.8197192295
C        1.7974820640   -1.0625048667    2.6608618016
C        1.7546367197   -1.0562277842    4.1535174278
C        0.4647954405   -1.0028531436    6.2182965107
Cl      -1.0740684857   -0.9443515343    7.0328368166
H        1.9075191616   -1.0859042116   -1.2324888138
H        1.9510866232    1.0734274904    0.0008188302
H        1.7928031308   -3.2292925213    0.0236256687
H        3.8095818510   -1.1224349115    6.8794395354
H        1.8802449317    1.0852815383    2.4865289529
H        1.7222295840   -3.2105621812    2.5090049984
H        3.8954001594   -1.1333551445    4.3916878038
H        1.6087908269   -1.0387553403    8.0417682420
H       -0.3963963199   -0.9776984623    4.2438936563
22   

C        1.8730385641   -1.0909182843   -0.1472294540
C        2.0888649200    0.1088203065    0.5392720392
C        1.6242001777   -2.2680833641    0.5667791298
C        2.8687712892   -0.9165683793    6.3128432228
C        2.0583118205    0.1291716269    1.9387864214
C        1.5942277196   -2.2448992514    1.9663986231
C        2.9311753123   -0.9102793640    4.9149019638
C        1.6320433151   -1.0465405227    6.9548328795
C        0.5293716486   -1.1658423022    4.8070949826
C        1.8187629009   -1.0492129978    2.6618444988
C        1.7598458739   -1.0256666352    4.1515139173
C        0.4575639927   -1.1734179916    6.2050133339
Cl      -1.0810096085   -1.3420737836    7.0046068053
H        1.8956897088   -1.1078703788   -1.2332349074
H        2.2773347656    1.0251468836   -0.0128044088
H        1.4526669629   -3.2001151180    0.0358672378
H        3.7792006967   -0.8234473047    6.8982348968
H        2.2185607137    1.0616508688    2.4721003224
H        1.3980699700   -3.1585009072    2.5201418868
H        3.8896241833   -0.8171911430    4.4123534802
H        1.5778632357   -1.0526432611    8.0394238843
H       -0.3804252629   -1.2668503284    4.2234976789
22   

C        1.8693822271   -1.0924849281   -0.1504259741
C        2.2486233594    0.0630474840    0.5404290871
C        1.4552248916   -2.2245163099    0.5591857354
C        2.8387936172   -0.7581368036    6.3065432397
C        2.2164639975    0.0840298570    1.9398600882
C        1.4236834632   -2.2012800003    1.9587298980
C        2.8980574286   -0.7532402354    4.9084903479
C        1.6299332954   -1.0399242994    6.9522656243
C        0.5484448402   -1.3134638898    4.8079711427
C        1.8127546079   -1.0512419071    2.6610595672
C        1.7496278639   -1.0200745335    4.1461833151
C        0.4805131634   -1.3207015830    6.2060299412
Cl      -1.0228584545   -1.6787143165    7.0102464758
H        1.8933176186   -1.1096845940   -1.2364005249
H        2.5645946204    0.9455745646   -0.0084443326
H        1.1570490522   -3.1219885117    0.0247533936
H        3.7310334478   -0.5472801200    6.8893626673
H        2.5011365970    0.9860656198    2.4734731808
H        1.1013712357   -3.0826095642    2.5055645940
H        3.8385015755   -0.5460192643    4.4061711840
H        1.5786004398   -1.0456856109    8.0369974244
H       -0.3444849435   -1.5315929027    4.2305420778
22   

C        1.8714766094   -1.0859126901   -0.1512549507
C        2.3880027939    0.0067103707    0.5515145522
C        1.3147732715   -2.1618100162    0.5467459581
C        2.8069734777   -0.6236024806    6.3006282392
C        2.3490331427    0.0215750458    1.9508241655
C        1.2761298850   -2.1451496198    1.9461456412
C        2.8568930247   -0.6267729449    4.9022175546
C        1.6425379505   -1.0328717195    6.9583097319
C        0.5855646475   -1.4481428602    4.8249233329
C        1.7967097633   -1.0559966020    2.6642813309
C        1.7438329276   -1.0338390520    4.1472658351
C        0.5277206153   -1.4476929646    6.2233752839
Cl      -0.9228435290   -1.9585015741    7.0420188576
H        1.9012432476   -1.0982907484   -1.2371523918
H        2.8166214842    0.8462454228    0.0116819324
H        0.9132555532   -3.0123332991    0.0032500576
H        3.6731817667   -0.3070595654    6.8748336930
H        2.7412239163    0.8809536481    2.4861594193
H        0.8491616704   -2.9910025913    2.4765625678
H        3.7688378611   -0.3207593887    4.3983248948
H        1.5988184280   -1.0322997469    8.0433903593
H       -0.2880408786   -1.7632481526    4.2634499126
22   

C        1.9240193925   -1.0574317196   -0.1569310963
C        1.4077305900   -2.1643840440    0.5207304884
C        2.3712673629    0.0507895991    0.5661469943
C        0.6237513246   -1.7473963837    6.2200375301
C        1.3402876313   -2.1631384872    1.9190909397
C        2.3038967877    0.0506177845    1.9644162261
C        0.6905682263   -1.7505492517    4.8223177582
C        1.5760812963   -1.0456517499    6.9636237891
C        2.6567458739   -0.3549058766    4.9160469768
C        1.7917720734   -1.0585517889    2.6638525530
C        1.7058053476   -1.0507126246    4.1459949538
C        2.5968428532   -0.3472871864    6.3143283806
Cl       3.7912933008    0.5208789412    7.2390711465
H        1.9761704977   -1.0577251164   -1.2420564945
H        1.0610854674   -3.0289412572   -0.0381406483
H        2.7671204063    0.9163618598    0.0425989197
H       -0.1706362190   -2.2877295454    6.7272241449
H        0.9504684863   -3.0433285615    2.4196602328
H        2.6374312953    0.9341384254    2.4989607867
H       -0.0706774566   -2.2883834754    4.2666365472
H        1.5284391419   -1.0406443393    8.0485335225
H        3.4721118923    0.1759583225    4.4369657981
22   

C        1.9156410610   -1.0542956131   -0.1662576044
C        1.2709769450   -2.0915261611    0.5077697433
C        2.4950734213   -0.0158013129    0.5625105003
C        0.7185248634   -1.8558915791    6.2391497683
C        1.2098223391   -2.0926732371    1.9065387034
C        2.4335983424   -0.0179114582    1.9609021354
C        0.7809404749   -1.8549160517    4.8411146162
C        1.5880806559   -1.0544043146    6.9797541580
C        2.5811422576   -0.2583037077    4.9273791514
C        1.8001875817   -1.0645926496    2.6658985752
C        1.7043515320   -1.0469758786    4.1511526046
C        2.5246983976   -0.2539996296    6.3257401179
Cl       3.6247284014    0.7363853659    7.2451334734
H        1.9627786055   -1.0532288667   -1.2516170386
H        0.8175678588   -2.9025490795   -0.0549557713
H        2.9887197874    0.8006324600    0.0430810949
H       -0.0102988064   -2.4793372577    6.7494623387
H        0.7135410498   -2.9328588315    2.3769510102
H        2.8717543010    0.8285135119    2.4764719691
H        0.0704104226   -2.4803814876    4.3141089350
H        1.5429137048   -1.0524927021    8.0647838074
H        3.3463418404    0.3552181704    4.4682292316
22   

C        1.9066897703   -1.0512420700   -0.1814875645
C        1.1046496813   -1.9741638258    0.4866264859
C        2.6490890171   -0.1307510315    0.5549118302
C        0.8516739519   -1.9949098428    6.2463883529
C        1.0447041234   -1.9772421068    1.8855660477
C        2.5889504937   -0.1340584129    1.9532761523
C        0.9131400034   -1.9899804494    4.8482249835
C        1.5934333749   -1.0745799955    6.9849147168
C        2.4552891367   -0.1477294986    4.9289771580
C        1.7831880809   -1.0595884639    2.6581512216
C        1.7155819753   -1.0676806849    4.1487511403
C        2.3985610559   -0.1469638557    6.3273484844
Cl       3.3294169129    1.0075403334    7.2424803613
H        1.9528253938   -1.0493393352   -1.2668931005
H        0.5232280235   -2.6946606182   -0.0815955130
H        3.2768697465    0.5920529604    0.0415464235
H        0.2237883614   -2.7183099571    6.7590148401
H        0.3992692451   -2.7247019161    2.3263737746
H        3.1928555323    0.6098623269    2.4556234751
H        0.3093224460   -2.7342625089    4.3468612851
H        1.5479747648   -1.0756904802    8.0699381820
H        3.0998822206    0.5991728220    4.4867138240
22   

C        1.9088832391   -1.0314858192   -0.1735916178
C        0.9646775505   -1.8224478035    0.4811013290
C        2.7932643541   -0.2547502248    0.5746722227
C        0.9965255806   -2.1238570931    6.2350906209
C        0.9020282450   -1.8333067174    1.8797617453
C        2.7297207201   -0.2660509143    1.9729328771
C        1.0591569178   -2.1112358131    4.8371189776
C        1.5965055955   -1.1024132993    6.9724763802
C        2.3147978654   -0.0581856866    4.9167784197
C        1.7727584943   -1.0465709340    2.6575503920
C        1.7304121220   -1.0857127287    4.1448657394
C        2.2562153523   -0.0640203008    6.3150449908
Cl       2.9928627718    1.2234330233    7.2293840938
H        1.9577488160   -1.0234114986   -1.2588458282
H        0.2738195900   -2.4296645274   -0.0968289712
H        3.5382779078    0.3546352448    0.0710257381
H        0.4825449499   -2.9319181702    6.7480715013
H        0.1365858699   -2.4511873058    2.3334195481
H        3.4604082545    0.3305908999    2.5061854297
H        0.5938169232   -2.9380284719    4.3139983538
H        1.5498649549   -1.1085158533    8.0574285675
H        2.8100480188    0.7856822045    4.4526745564
22   

C        1.9067306554   -1.0300516426   -0.1593750086
C        0.8725312580   -1.7061633209    0.4920845669
C        2.8818047300   -0.3680598541    0.5902981111
C        1.1245248930   -2.1862751454    6.2345777094
C        0.8132419300   -1.7187954840    1.8907538739
C        2.8210992845   -0.3808858546    1.9888169990
C        1.1819078091   -2.1745217916    4.8364758645
C        1.6113066699   -1.0979214015    6.9631947151
C        2.2089670633    0.0081472211    4.8999774007
C        1.7828766061   -1.0524508686    2.6617666373
C        1.7291517812   -1.0788016672    4.1451978944
C        2.1547318892    0.0039524301    6.2984911461
Cl       2.7538825148    1.3665768056    7.2039527884
H        1.9534402397   -1.0203053075   -1.2447045142
H        0.1111692936   -2.2201828705   -0.0876330032
H        3.6915291268    0.1531420859    0.0875939994
H        0.7046356261   -3.0431315642    6.7539397499
H       -0.0107256239   -2.2375018276    2.3695900694
H        3.6046498139    0.1226356130    2.5456882565
H        0.8135460883   -3.0389467111    4.2936856614
H        1.5685475348   -1.1024603729    8.0483084237
H        2.6144635612    0.8850562652    4.4072684142
22   

C        1.9148005098   -1.0232990261   -0.1566817568
C        0.8042090352   -1.5818430243    0.4829401380
C        2.9589027430   -0.4877228923    0.6033756298
C        1.2366768105   -2.2518684170    6.2268470668
C        0.7396445688   -1.6059214805    1.8811715718
C        2.8925477431   -0.5121525266    2.0016231288
C        1.2895635568   -2.2390873059    4.8286056275
C        1.6090427722   -1.1140089406    6.9497170682
C        2.0866976718    0.0414986534    4.8814647796
C        1.7849248260   -1.0753860717    2.6565474456
C        1.7099504169   -1.0893605757    4.1386937575
C        2.0364512731    0.0366815026    6.2802087028
Cl       2.5013206383    1.4541935585    7.1800921602
H        1.9657394977   -1.0041237740   -1.2416932543
H       -0.0107542905   -1.9942051837   -0.1050610797
H        3.8232941409   -0.0536577813    0.1089987723
H        0.9102280468   -3.1460508243    6.7503913878
H       -0.1334147917   -2.0303941464    2.3675040026
H        3.7141826405   -0.1009531842    2.5803649903
H        1.0120432768   -3.1305852946    4.2741610168
H        1.5698465874   -1.1189196846    8.0349601496
H        2.4111733105    0.9424957260    4.3709266558
22   

C        1.9206591128   -1.0214301722   -0.1551122946
C        0.7461618759   -1.4430472369    0.4766871537
C        3.0222236984   -0.6281166650    0.6119888998
C        1.3713713241   -2.2834179977    6.2362282313
C        0.6758037405   -1.4740365758    1.8745322644
C        2.9496400472   -0.6597437491    2.0098394735
C        1.4162901045   -2.2798422720    4.8376390444
C        1.6161261665   -1.1020054649    6.9447883938
C        1.9521516368    0.0774602455    4.8619057277
C        1.7803512185   -1.0916433592    2.6528279085
C        1.6962753894   -1.0956750306    4.1372228300
C        1.9094716076    0.0825683809    6.2609738539
Cl       2.2213857529    1.5518283096    7.1436110477
H        1.9761544971   -0.9963526154   -1.2397781978
H       -0.1128357449   -1.7429633828   -0.1167160776
H        3.9342963597   -0.2971273002    0.1235707663
H        1.1506303377   -3.2030369569    6.7708367913
H       -0.2409639336   -1.7915348920    2.3625716136
H        3.8074309301   -0.3534029430    2.6014522559
H        1.2378720469   -3.1988159855    4.2868627973
H        1.5831732651   -1.0994133312    8.0302459071
H        2.1799662037    0.9976000139    4.3329715494
22   

C        1.9192466342   -1.0249380355   -0.1524258664
C        0.6987368426   -1.2834467838    0.4806392723
C        3.0676492926   -0.7966378133    0.6134059273
C        1.5297349712   -2.3117810523    6.2465354279
C        0.6289114095   -1.3160455670    1.8785134933
C        2.9949986232   -0.8298486392    2.0112568972
C        1.5732877159   -2.3113380562    4.8478669039
C        1.6226729690   -1.1039198435    6.9472273783
C        1.8045152841    0.0953265335    4.8563788758
C        1.7783251658   -1.0974185842    2.6530004908
C        1.7017855179   -1.1057792903    4.1420287539
C        1.7621390355    0.1042933996    6.2554915150
Cl       1.8846823973    1.6069845760    7.1283626659
H        1.9745758369   -0.9985745700   -1.2370695857
H       -0.1953893860   -1.4561018899   -0.1115531051
H        4.0156871970   -0.5920593477    0.1241757319
H        1.4267054401   -3.2484963027    6.7870782129
H       -0.3197879527   -1.5094658691    2.3706305709
H        3.8862532540   -0.6496174650    2.6053607953
H        1.5090692189   -3.2471148271    4.3001056319
H        1.5900369823   -1.0984920707    8.0326839171
H        1.9153680482    1.0314086906    4.3178802766
22   

C        1.9066783170   -1.0356907172   -0.1520775585
C        0.6687636450   -1.1029635090    0.4965345633
C        3.0863557598   -0.9889245431    0.5989535538
C        1.7064707414   -2.3235023874    6.2452077038
C        0.6122555796   -1.1235409782    1.8952476467
C        3.0269455872   -1.0096379173    1.9976995051
C        1.7616368403   -2.3127821488    4.8469766542
C        1.6219412884   -1.1165076193    6.9487184198
C        1.6479341510    0.1025515416    4.8614924544
C        1.7912002247   -1.0771869095    2.6538733323
C        1.7327031871   -1.0985959668    4.1458371986
C        1.5923063959    0.1013520301    6.2602018707
Cl       1.4870808383    1.6033678455    7.1364862831
H        1.9518029411   -1.0193155785   -1.2373898116
H       -0.2485465485   -1.1387930863   -0.0841815207
H        4.0485167035   -0.9360981591    0.0975347988
H        1.7292481763   -3.2671150950    6.7830871564
H       -0.3479404843   -1.1751178671    2.4002994398
H        3.9421799939   -0.9727440747    2.5814124538
H        1.8273113029   -3.2465225920    4.2958792844
H        1.5788646336   -1.1189558493    8.0338218984
H        1.6251473442    1.0456660957    4.3243209314
22   

C        1.8952336358   -1.0344605122   -0.1523767420
C        0.6718804570   -0.9046004748    0.5139934249
C        3.0785095904   -1.1722358790    0.5815541676
C        1.8839040742   -2.3111932821    6.2347644403
C        0.6335979653   -0.9101546355    1.9134280494
C        3.0377457676   -1.1774309287    1.9811243637
C        1.9557371563   -2.2794311863    4.8376350007
C        1.6203216919   -1.1350757930    6.9461784828
C        1.4988209027    0.0953944126    4.8689438753
C        1.8176335017   -1.0384836922    2.6556548496
C        1.7730643706   -1.0726723899    4.1455982304
C        1.4249477802    0.0724459254    6.2666172168
Cl       1.0895536095    1.5344816995    7.1525978939
H        1.9259885412   -1.0306868554   -1.2383087870
H       -0.2486060436   -0.8017745472   -0.0535576708
H        4.0289839710   -1.2762109573    0.0660526417
H        2.0295998337   -3.2478021827    6.7655874622
H       -0.3165063849   -0.8162841646    2.4313509895
H        3.9559479892   -1.2869371687    2.5508221018
H        2.1520456384   -3.1911142191    4.2807020009
H        1.5627565778   -1.1542754521    8.0304431398
H        1.3443971956    1.0303089712    4.3392565647
22   

C        1.8883743875   -1.0377269123   -0.1529709156
C        0.6997854816   -0.7362315427    0.5200115095
C        3.0439046215   -1.3411951606    0.5746701902
C        2.0399531071   -2.2666773979    6.2409710585
C        0.6688184309   -0.7352966724    1.9196055650
C        3.0108169448   -1.3397815109    1.9744116453
C        2.1151954163   -2.2309898005    4.8441296267
C        1.6241951869   -1.1318996406    6.9462051101
C        1.3576008946    0.0652591332    4.8632907003
C        1.8270618177   -1.0272932529    2.6580241702
C        1.7857186150   -1.0595287318    4.1437948490
C        1.2792671650    0.0377318309    6.2605668381
Cl       0.7536883553    1.4476920462    7.1385364208
H        1.9131414051   -1.0391574011   -1.2390625755
H       -0.2004634364   -0.5062225147   -0.0426949039
H        3.9671618046   -1.5787179034    0.0539751589
H        2.2998633059   -3.1754839467    6.7764608734
H       -0.2585055120   -0.5118511340    2.4390071964
H        3.9096800251   -1.5763487688    2.5361454525
H        2.4256374668   -3.1152305618    4.2950884919
H        1.5631925870   -1.1546498148    8.0302130891
H        1.0886970190    0.9730059020    4.3322493353
22   

C        1.8896499740   -1.0423617662   -0.1568812350
C        0.7456773603   -0.6023014206    0.5155981084
C        2.9934487564   -1.4960878396    0.5714599222
C        2.1733433226   -2.2324633229    6.2549063968
C        0.7071759389   -0.6144591702    1.9149359956
C        2.9530939594   -1.5080245849    1.9708809879
C        2.2346862575   -2.2058628176    4.8571913082
C        1.6387045816   -1.1435458417    6.9508946740
C        1.2273524818   -0.0092892786    4.8568203196
C        1.8123664720   -1.0628142956    2.6584295290
C        1.7677294487   -1.0902956136    4.1416390383
C        1.1625881676   -0.0282516151    6.2548446362
Cl       0.4950925962    1.3279313002    7.1211246712
H        1.9201901476   -1.0329525745   -1.2427870885
H       -0.1153113672   -0.2537841733   -0.0476384895
H        3.8837734350   -1.8378620877    0.0514065304
H        2.5370629514   -3.0998286907    6.7986136773
H       -0.1919239931   -0.2829303581    2.4256455410
H        3.8195306482   -1.8545471836    2.5259676626
H        2.6378718812   -3.0610557847    4.3231133808
H        1.5887098056   -1.1595026023    8.0355881849
H        0.8631084406    0.8642351374    4.3257496142
22   

C        1.8911913675   -1.0397745731   -0.1596798245
C        0.8004822538   -0.4813580157    0.5107393621
C        2.9272331269   -1.6258798542    0.5711024792
C        2.2884860344   -2.1603325811    6.2804747442
C        0.7459671063   -0.5101844849    1.9093087604
C        2.8710924089   -1.6545959418    1.9696332915
C        2.3269167383   -2.1565655716    4.8817038118
C        1.6532012676   -1.1209364494    6.9648802774
C        1.0986400410   -0.0795023994    4.8563783513
C        1.7773603220   -1.1009347000    2.6615884441
C        1.7289932977   -1.1180829508    4.1453811169
C        1.0564521045   -0.0760688734    6.2553312854
Cl       0.2718918380    1.2261992100    7.1063035319
H        1.9342184252   -1.0167648202   -1.2449620126
H       -0.0083688195   -0.0265118043   -0.0539702227
H        3.7804746745   -2.0549897856    0.0536086821
H        2.7496663905   -2.9731093438    6.8345092537
H       -0.1216736117   -0.0839257350    2.4023370597
H        3.7005340181   -2.0960087950    2.5122705935
H        2.8109266751   -2.9834461319    4.3721750128
H        1.6213068859   -1.1193369892    8.0503764439
H        0.6480328306    0.7548918758    4.3302411111
22   

C        1.8980554709   -1.0331278236   -0.1731793019
C        0.8839387129   -0.3551794512    0.5031449630
C        2.8495426424   -1.7490183519    0.5530047499
C        2.4093033202   -2.0737041984    6.2947489123
C        0.8195491796   -0.3959394278    1.9010808049
C        2.7840369454   -1.7892754475    1.9507153849
C        2.4309130914   -2.0844159633    4.8956159343
C        1.6731229119   -1.1039906409    6.9762151496
C        0.9868933714   -0.1583868464    4.8624001939
C        1.7593974203   -1.1220681199    2.6572113154
C        1.7116182910   -1.1353078037    4.1449256150
C        0.9605262531   -0.1411355988    6.2616279349
Cl       0.0522256566    1.0823489787    7.1068199312
H        1.9483944921   -1.0008377378   -1.2579141496
H        0.1398801015    0.2038816736   -0.0571119095
H        3.6478573930   -2.2703415241    0.0325138420
H        2.9640301484   -2.8234059594    6.8519825939
H       -0.0010181692    0.1319923785    2.3722056001
H        3.5657107730   -2.3344444151    2.4659456956
H        3.0013187023   -2.8699850165    4.4143484532
H        1.6540061443   -1.0917483083    8.0619489706
H        0.4427121778    0.6293891203    4.3567421470
22   

C        1.8784171870   -1.0458569709   -0.1862066301
C        1.0060271852   -0.2077082552    0.5047600913
C        2.7142781399   -1.9009918066    0.5282931374
C        2.5507678331   -1.9574362188    6.3014593331
C        0.9693463852   -0.2243208145    1.9043124404
C        2.6769274353   -1.9169263840    1.9274394252
C        2.5905390630   -1.9439128906    4.9026564373
C        1.6757431057   -1.1164500826    6.9865284075
C        0.8840314088   -0.2522162905    4.8756588390
C        1.8012636599   -1.0769674580    2.6562394865
C        1.7601218999   -1.0926428854    4.1478339143
C        0.8386673877   -0.2601985362    6.2744908956
Cl      -0.2587672345    0.7949710658    7.1225291515
H        1.9065146308   -1.0326063479   -1.2721484271
H        0.3512007891    0.4618654194   -0.0456730024
H        3.3973493890   -2.5576184967   -0.0030176299
H        3.2037849924   -2.6253843480    6.8561989446
H        0.2653820435    0.4556820547    2.3649123681
H        3.3550120752   -2.6070209095    2.4112649962
H        3.2944073289   -2.6238054789    4.4415912734
H        1.6420115755   -1.1241000565    8.0719522396
H        0.2064463583    0.4373913804    4.3918091108
