22   

C        1.8654110431   -1.0660918933   -0.1744311557
C        1.1522251821   -0.0843885812    0.5133810920
C        2.5628479837   -2.0384083045    0.5420556132
C        2.6657470495   -1.8148578866    6.3045473423
C        1.1394482465   -0.0730449816    1.9132880421
C        2.5495648892   -2.0259446258    1.9417610979
C        2.7295918291   -1.7829406733    4.9070282501
C        1.6635853469   -1.1136233948    6.9758482777
C        0.7917402321   -0.3553877381    4.8549385874
C        1.8458659547   -1.0347861920    2.6605102600
C        1.8023724922   -1.0437055815    4.1483916348
C        0.7213126051   -0.3826073084    6.2524830255
Cl      -0.5423574467    0.4821669434    7.0840943013
H        1.8746686418   -1.0752752764   -1.2607351271
H        0.6073061251    0.6756746815   -0.0392737737
H        3.1114698251   -2.8117674296    0.0120321932
H        3.3993826357   -2.3839681546    6.8686185516
H        0.5858690777    0.7243751137    2.3946131217
H        3.0826837942   -2.8219935746    2.4475041497
H        3.5385030534   -2.3277624874    4.4348714378
H        1.6100945165   -1.1360746365    8.0602688373
H        0.0182072433    0.2008716284    4.3405094094
22   

C        1.8817851946   -1.0657566246   -0.1571823543
C        1.2826853490   -0.0050951075    0.5261879656
C        2.4482802408   -2.1209012051    0.5616141106
C        2.7324262328   -1.6791862327    6.3070233266
C        1.2513589074    0.0003645067    1.9257567691
C        2.4168043342   -2.1137748817    1.9611914622
C        2.7884021354   -1.6678720082    4.9088814893
C        1.6575416209   -1.0793473698    6.9682377286
C        0.6998987362   -0.4607916856    4.8379279960
C        1.8215456537   -1.0507702391    2.6664203553
C        1.7750222552   -1.0547873246    4.1503950299
C        0.6367119786   -0.4684560770    6.2360682382
Cl      -0.7095674776    0.2719324813    7.0576171635
H        1.9054642834   -1.0707442848   -1.2432904806
H        0.8428604041    0.8184905910   -0.0290434920
H        2.9089074459   -2.9509958063    0.0336697007
H        3.5263632014   -2.1514154160    6.8787847025
H        0.7943788256    0.8456644827    2.4299541733
H        2.8443167541   -2.9573608788    2.4930430488
H        3.6417876050   -2.1249108995    4.4185107844
H        1.6095736682   -1.0861207631    8.0531221001
H       -0.1166312155   -0.0003154051    4.2926504821
22   

C        1.8898049413   -1.0596249797   -0.1503369971
C        1.4065636535    0.0545757765    0.5422195912
C        2.3239619062   -2.1843419300    0.5576562477
C        2.7969144410   -1.5621161588    6.2942059250
C        1.3560480750    0.0424516740    1.9411845361
C        2.2731746118   -2.1946525039    1.9567405457
C        2.8332146591   -1.5736498270    4.8954165028
C        1.6719332128   -1.0638237392    6.9590662013
C        0.6272219758   -0.5894856953    4.8319842716
C        1.7841173881   -1.0842979898    2.6639067469
C        1.7452959146   -1.0927938592    4.1473274417
C        0.5831998972   -0.5745304622    6.2308718360
Cl      -0.8179124963    0.0477955317    7.0584040144
H        1.9290677743   -1.0508514769   -1.2359670854
H        1.0731365670    0.9317532386   -0.0049413343
H        2.6992533074   -3.0515916892    0.0219520039
H        3.6434711503   -1.9362107731    6.8630901921
H        0.9914591050    0.9189899172    2.4683202972
H        2.6051422103   -3.0769402487    2.4955161425
H        3.7160319015   -1.9487228199    4.3863922169
H        1.6390547972   -1.0524657925    8.0444722107
H       -0.2260796813   -0.2153885828    4.2754942119
22   

C        1.8856406229   -1.0595657450   -0.1460371886
C        1.5406222875    0.1011621629    0.5541215704
C        2.1699857563   -2.2371605433    0.5534032737
C        2.8303386968   -1.4268214115    6.2874861167
C        1.4770951358    0.0822081567    1.9524893762
C        2.1059536461   -2.2540009989    1.9519683867
C        2.8579240961   -1.4524009743    4.8886683277
C        1.6603800914   -1.0481965948    6.9551461046
C        0.5543085327   -0.7195450599    4.8311505643
C        1.7495135613   -1.0986058406    2.6620860418
C        1.7150827967   -1.1100584424    4.1483505031
C        0.5185149903   -0.6909639712    6.2301401396
Cl      -0.9353509079   -0.2115989023    7.0617284462
H        1.9356321565   -1.0455921520   -1.2311711539
H        1.3253211026    1.0185171569    0.0136631742
H        2.4412194888   -3.1388195016    0.0117493071
H        3.7173473694   -1.6964141764    6.8538484456
H        1.2199116109    0.9881094337    2.4936316695
H        2.3278203670   -3.1698767955    2.4917928660
H        3.7693924366   -1.7339516831    4.3693837580
H        1.6340024228   -1.0257825643    8.0405558259
H       -0.3319608346   -0.4411419178    4.2696020375
22   

C        1.8868797938   -1.0679245341   -0.1450528678
C        1.7114091570    0.1298717294    0.5563532228
C        2.0050565082   -2.2746259975    0.5532680258
C        2.8667197831   -1.2676604327    6.2912667338
C        1.6518194828    0.1191497109    1.9550143484
C        1.9450563663   -2.2828096765    1.9521305986
C        2.9005042663   -1.2904607791    4.8925173744
C        1.6558129778   -1.0418635306    6.9557745223
C        0.5213834673   -0.8602159701    4.8288794709
C        1.7601612421   -1.0886231026    2.6611787249
C        1.7249479228   -1.0963011851    4.1517417739
C        0.4787200535   -0.8354707391    6.2278150359
Cl      -1.0267483582   -0.5470966408    7.0557089792
H        1.9336695443   -1.0606678464   -1.2303947310
H        1.6236665380    1.0685357971    0.0167293809
H        2.1443712287   -3.2053170184    0.0107190326
H        3.7794830297   -1.4220457254    6.8598289304
H        1.5225004515    1.0494888825    2.5004485127
H        2.0393460265   -3.2191917699    2.4942948138
H        3.8393103184   -1.4572909879    4.3722402406
H        1.6241220389   -1.0224011811    8.0410986896
H       -0.3898405969   -0.6971413121    4.2618169664
22   

C        1.8770475807   -1.0790290915   -0.1465643554
C        1.9016237985    0.1358288181    0.5471119619
C        1.8125643800   -2.2849798636    0.5601396433
C        2.8893632246   -1.0907734867    6.3028693023
C        1.8618624204    0.1430628137    1.9465281020
C        1.7729043890   -2.2749138805    1.9597074101
C        2.9384748042   -1.0969406571    4.9043882578
C        1.6527462515   -1.0437504282    6.9567087010
C        0.5233633366   -1.0093515058    4.8197192233
C        1.7974820640   -1.0625048667    2.6608618016
C        1.7546367197   -1.0562277842    4.1535174278
C        0.4647954441   -1.0028529853    6.2182965041
Cl      -1.0740684849   -0.9443512911    7.0328367981
H        1.9075191328   -1.0859042149   -1.2324888137
H        1.9510866134    1.0734274869    0.0008188267
H        1.7928030653   -3.2292925199    0.0236256723
H        3.8095818504   -1.1224348408    6.8794395373
H        1.8802449503    1.0852815366    2.4865289554
H        1.7222295137   -3.2105621807    2.5090049965
H        3.8954001537   -1.1333551919    4.3916877964
H        1.6087908314   -1.0387551320    8.0417682385
H       -0.3963963143   -0.9776983604    4.2438936394
22   

C        1.8730256066   -1.0909163309   -0.1472294398
C        2.0888596524    0.1088209937    0.5392719180
C        1.6241831706   -2.2680804650    0.5667793753
C        2.8687645926   -0.9165162282    6.3128431425
C        2.0583118205    0.1291716269    1.9387864214
C        1.5942156501   -2.2448969153    1.9663990039
C        2.9311753123   -0.9102793640    4.9149019638
C        1.6320279782   -1.0464127616    6.9548318185
C        0.5293575496   -1.1657220519    4.8070934337
C        1.8187629009   -1.0492129978    2.6618444988
C        1.7598458739   -1.0256666352    4.1515139173
C        0.4575443991   -1.1732499824    6.2050117863
Cl      -1.0810411922   -1.3417979255    7.0046049131
H        1.8956731097   -1.1078679979   -1.2332349761
H        2.2773312556    1.0251471130   -0.0128046920
H        1.4526426927   -3.2001109263    0.0358675606
H        3.7791951897   -0.8234120549    6.8982356531
H        2.2185658668    1.0616499152    2.4721004713
H        1.3980532652   -3.1584972327    2.5201428224
H        3.8896292526   -0.8172406338    4.4123539688
H        1.5778435412   -1.0524805694    8.0394228021
H       -0.3804431750   -1.2666905178    4.2234952256
22   

C        1.8693554444   -1.0924780248   -0.1504254981
C        2.2486124854    0.0630498090    0.5404287933
C        1.4551895162   -2.2245059028    0.5591871047
C        2.8387733028   -0.7580636635    6.3065426173
C        2.2164639975    0.0840298570    1.9398600882
C        1.4236582455   -2.2012715998    1.9587315591
C        2.8980574286   -0.7532402354    4.9084903479
C        1.6298859773   -1.0397444168    6.9522618805
C        0.5484016109   -1.3132938819    4.8079660468
C        1.8127546079   -1.0512419071    2.6610595672
C        1.7496278639   -1.0200745335    4.1461833151
C        0.4804525098   -1.3204644914    6.2060243982
Cl      -1.0229565840   -1.6783250115    7.0102386041
H        1.8932833983   -1.1096761781   -1.2364002382
H        2.5645873654    0.9455751244   -0.0084453847
H        1.1569985399   -3.1219733658    0.0247552528
H        3.7310174391   -0.5472312839    6.8893642531
H        2.5011471214    0.9860622316    2.4734733435
H        1.1013360530   -3.0825959081    2.5055689235
H        3.8385177498   -0.5460892330    4.4061725435
H        1.5785397223   -1.0454567510    8.0369933059
H       -0.3445396314   -1.5313667894    4.2305334533
22   

C        1.8714475050   -1.0859034041   -0.1512535189
C        2.3879908363    0.0067131646    0.5515141603
C        1.3147350322   -2.1617953136    0.5467491540
C        2.8069444850   -0.6235322967    6.3006270445
C        2.3490331427    0.0215750458    1.9508241655
C        1.2761027826   -2.1451374500    1.9461491932
C        2.8568930247   -0.6267729449    4.9022175546
C        1.6424695252   -1.0326983350    6.9583039418
C        0.5855025213   -1.4479778200    4.8249155726
C        1.7967097633   -1.0559966020    2.6642813309
C        1.7438329276   -1.0338390520    4.1472658351
C        0.5276327467   -1.4474636910    6.2233664866
Cl      -0.9229858457   -1.9581252985    7.0420052408
H        1.9012059536   -1.0982795660   -1.2371512070
H        2.8166132098    0.8462452569    0.0116798588
H        0.9132008978   -3.0123115511    0.0032543673
H        3.6731596652   -0.3070133635    6.8748353287
H        2.7412353399    0.8809483845    2.4861595971
H        0.8491235540   -2.9909813380    2.4765720938
H        3.7688614349   -0.3208271231    4.3983262401
H        1.5987306969   -1.0320794898    8.0433837709
H       -0.2881185398   -1.7630283170    4.2634353204
22   

C        1.9240379799   -1.0574329885   -0.1569270001
C        1.4077384988   -2.1643832978    0.5207308265
C        2.3712913637    0.0507848807    0.5661540391
C        0.6237909434   -1.7474467305    6.2200395532
C        1.3402876313   -2.1631384872    1.9190909397
C        2.3039135394    0.0506124088    1.9644229236
C        0.6905682263   -1.7505492517    4.8223177582
C        1.5761771200   -1.0457773960    6.9636257477
C        2.6568340228   -0.3550276469    4.9160460090
C        1.7917720734   -1.0585517889    2.6638525530
C        1.7058053476   -1.0507126246    4.1459949538
C        2.5969672398   -0.3474547036    6.3143292211
Cl       3.7914955740    0.5206037367    7.2390723949
H        1.9761944272   -1.0577258870   -1.2420521436
H        1.0610913442   -3.0289379828   -0.0381429633
H        2.7671547231    0.9163540091    0.0426086021
H       -0.1706080214   -2.2877614349    6.7272279464
H        0.9504607348   -3.0433252201    2.4196603681
H        2.6374547514    0.9341250797    2.4989772994
H       -0.0707113493   -2.2883331107    4.2666338222
H        1.5285615738   -1.0408034097    8.0485368037
H        3.4722238727    0.1757936647    4.4369571195
22   

C        1.9156393959   -1.0542884250   -0.1662549129
C        1.2709769936   -2.0915224435    0.5077697267
C        2.4950694423   -0.0157937007    0.5625153574
C        0.7185561472   -1.8559232093    6.2391511649
C        1.2098223391   -2.0926732371    1.9065387034
C        2.4335943524   -0.0179073192    1.9609069877
C        0.7809404749   -1.8549160517    4.8411146162
C        1.5881574402   -1.0544844199    6.9797552875
C        2.5812141225   -0.2583838975    4.9273778767
C        1.8001875817   -1.0645926496    2.6658985752
C        1.7043515320   -1.0469758786    4.1511526046
C        2.5247991310   -0.2541081032    6.3257400736
Cl       3.6248930875    0.7362062298    7.2451329272
H        1.9627769488   -1.0532191331   -1.2516143468
H        0.8175694489   -2.9025447596   -0.0549578998
H        2.9887134093    0.8006426247    0.0430876993
H       -0.0102776905   -2.4793559124    6.7494650569
H        0.7135429219   -2.9328593861    2.3769525251
H        2.8717451043    0.8285156630    2.4764856165
H        0.0703819552   -2.4803470857    4.3141059008
H        1.5430114792   -1.0525935238    8.0647858481
H        3.3464359460    0.3551052615    4.4682202100
22   

C        1.9066898260   -1.0512421643   -0.1814875780
C        1.1046497006   -1.9741638714    0.4866264893
C        2.6490890865   -0.1307511333    0.5549118087
C        0.8516739025   -1.9949097627    6.2463883544
C        1.0447041234   -1.9772421068    1.8855660477
C        2.5889505497   -0.1340584716    1.9532761342
C        0.9131400034   -1.9899804494    4.8482249835
C        1.5934332363   -1.0745798202    6.9849146985
C        2.4552889934   -0.1477293626    4.9289771278
C        1.7831880809   -1.0595884639    2.6581512216
C        1.7155819753   -1.0676806849    4.1487511403
C        2.3985608559   -0.1469636414    6.3273484458
Cl       3.3294165477    1.0075407102    7.2424802818
H        1.9528254641   -1.0493394700   -1.2668931152
H        0.5232280256   -2.6946606619   -0.0815954902
H        3.2768698447    0.5920528206    0.0415463849
H        0.2237883377   -2.7183098859    6.7590148605
H        0.3992692068   -2.7247018772    2.3263737834
H        3.1928556278    0.6098622481    2.4556234384
H        0.3093225108   -2.7342625709    4.3468612994
H        1.5479745929   -1.0756902459    8.0699381619
H        3.0998820048    0.5991730092    4.4867137721
22   

C        1.9088903661   -1.0314859484   -0.1735885230
C        0.9646811664   -1.8224470353    0.4811014756
C        2.7932721854   -0.2547524956    0.5746776129
C        0.9964887823   -2.1238316928    6.2350892190
C        0.9020282450   -1.8333067174    1.8797617453
C        2.7297251796   -0.2660538741    1.9729381045
C        1.0591569178   -2.1112358131    4.8371189776
C        1.5964129939   -1.1023514400    6.9724705621
C        2.3147063562   -0.0581288350    4.9167704436
C        1.7727584943   -1.0465709340    2.6575503920
C        1.7304121220   -1.0857127287    4.1448657394
C        2.2560907206   -0.0639398122    6.3150357061
Cl       2.9926571884    1.2235643353    7.2293683642
H        1.9577583959   -1.0234110885   -1.2588426215
H        0.2738236497   -2.4296622112   -0.0968309826
H        3.5382885484    0.3546311667    0.0710331105
H        0.4825226444   -2.9319005135    6.7480724198
H        0.1365849716   -2.4511855655    2.3334209566
H        3.4604111748    0.3305827953    2.5061995923
H        0.5938560297   -2.9380506854    4.3139980804
H        1.5497481007   -1.1084368451    8.0574218056
H        2.8099208483    0.7857549963    4.4526564289
22   

C        1.9067258315   -1.0300332371   -0.1593718661
C        0.8725305337   -1.7061553063    0.4920845617
C        2.8817954367   -0.3680366240    0.5903037836
C        1.1244684999   -2.1862450099    6.2345756600
C        0.8132419300   -1.7187954840    1.8907538739
C        2.8210906906   -0.3808699736    1.9888226434
C        1.1819078091   -2.1745217916    4.8364758645
C        1.6111665685   -1.0978492466    6.9631866896
C        2.2088321491    0.0082125034    4.8999669916
C        1.7828766061   -1.0524508686    2.6617666373
C        1.7291517812   -1.0788016672    4.1451978944
C        2.1545457216    0.0040453110    6.2984788511
Cl       2.7535771347    1.3667273014    7.2039325879
H        1.9534348779   -1.0202814472   -1.2447013505
H        0.1111715285   -2.2201764916   -0.0876354488
H        3.6915147657    0.1531750996    0.0876016651
H        0.7045993064   -3.0431093953    6.7539407911
H       -0.0107209674   -2.2375089187    2.3695907099
H        3.6046317103    0.1226570930    2.5457030147
H        0.8136016155   -3.0389713085    4.2936867332
H        1.5683699632   -1.1023679199    8.0482990092
H        2.6142827337    0.8851371999    4.4072473439
22   

C        1.9147908758   -1.0232700194   -0.1566793419
C        0.8042061510   -1.5818310444    0.4829401734
C        2.9588875068   -0.4876848865    0.6033800395
C        1.2366064921   -2.2518401055    6.2268446679
C        0.7396445688   -1.6059214805    1.8811715718
C        2.8925351358   -0.5121256873    2.0016274803
C        1.2895635568   -2.2390873059    4.8286056275
C        1.6088690498   -1.1139420548    6.9497081313
C        2.0865323211    0.0415594110    4.8814538838
C        1.7849248260   -1.0753860717    2.6565474456
C        1.7099504169   -1.0893605757    4.1386937575
C        2.0362215084    0.0367673987    6.2801956216
Cl       2.5009434543    1.4543326290    7.1800714178
H        1.9657279106   -1.0040865794   -1.2416907872
H       -0.0107540799   -1.9941967876   -0.1050628229
H        3.8232716372   -0.0536034635    0.1090048042
H        0.9101817514   -3.1460292925    6.7503923955
H       -0.1334094103   -2.0304055290    2.3675038351
H        3.7141605969   -0.1009157016    2.5803755015
H        1.0121111663   -3.1306082291    4.2741637457
H        1.5696258997   -1.1188339334    8.0349496038
H        2.4109532483    0.9425717489    4.3709076557
22   

C        1.9206517840   -1.0214032771   -0.1551108735
C        0.7461593872   -1.4430362767    0.4766872649
C        3.0222127363   -0.6280812535    0.6119914673
C        1.3712981263   -2.2833984414    6.2362259124
C        0.6758037405   -1.4740365758    1.8745322644
C        2.9496312542   -0.6597186135    2.0098419503
C        1.4162901045   -2.2798422720    4.8376390444
C        1.6159462141   -1.1019599022    6.9447803618
C        1.9519815710    0.0775019005    4.8618965141
C        1.7803512185   -1.0916433592    2.6528279085
C        1.6962753894   -1.0956750306    4.1372228300
C        1.9092344172    0.0826267588    6.2609625833
Cl       2.2209962607    1.5519226447    7.1435937086
H        1.9761455294   -0.9963182018   -1.2397766879
H       -0.1128364085   -1.7429559724   -0.1167168164
H        3.9342804252   -0.2970767280    0.1235743283
H        1.1505813918   -3.2030215516    6.7708373540
H       -0.2409604069   -1.7915454268    2.3625714394
H        3.8074166839   -0.3533680473    2.6014576510
H        1.2379420253   -3.1988314697    4.2868659112
H        1.5829443073   -1.0993548744    8.0302363552
H        2.1797401240    0.9976526885    4.3329573254
22   

C        1.9192445671   -1.0249254505   -0.1524253517
C        0.6987361088   -1.2834416875    0.4806393632
C        3.0676462339   -0.7966212144    0.6134068085
C        1.5296830389   -2.3117749157    6.2465337997
C        0.6289114095   -1.3160455670    1.8785134933
C        2.9949961627   -0.8298367971    2.0112577165
C        1.5732877159   -2.3113380562    4.8478669039
C        1.6225456334   -1.1039058109    6.9472224728
C        1.8043952218    0.0953394516    4.8563736918
C        1.7783251658   -1.0974185842    2.6530004908
C        1.7017855179   -1.1057792903    4.1420287539
C        1.7619713963    0.1043113113    6.2554848818
Cl       1.8844070910    1.6070133823    7.1283523871
H        1.9745733179   -0.9985584987   -1.2370690080
H       -0.1953896386   -1.4560985646   -0.1115532299
H        4.0156827902   -0.5920356828    0.1241769541
H        1.4266704020   -3.2484912229    6.7870779766
H       -0.3197869527   -1.5094709349    2.3706305401
H        3.8862493977   -0.6496010759    2.6053623145
H        1.5091185455   -3.2471193901    4.3001076331
H        1.5898749034   -1.0984740544    8.0326779427
H        1.9152084588    1.0314250599    4.3178729579
22   

C        1.9066783419   -1.0356906332   -0.1520775463
C        0.6687636629   -1.1029634662    0.4965345628
C        3.0863557795   -0.9889244501    0.5989535752
C        1.7064706087   -2.3235023846    6.2452077027
C        0.6122555796   -1.1235409782    1.8952476467
C        3.0269455908   -1.0096378622    1.9976995217
C        1.7616368403   -2.3127821488    4.8469766542
C        1.6219409688   -1.1165076285    6.9487184160
C        1.6479339057    0.1025515300    4.8614924525
C        1.7912002247   -1.0771869095    2.6538733323
C        1.7327031871   -1.0985959668    4.1458371986
C        1.5923060104    0.1013520141    6.2602018634
Cl       1.4870801782    1.6033678146    7.1364862652
H        1.9518029838   -1.0193154758   -1.2373897980
H       -0.2485465237   -1.1387930498   -0.0841815325
H        4.0485167284   -0.9360980334    0.0975348356
H        1.7292480876   -3.2671150819    6.7830871670
H       -0.3479404867   -1.1751178988    2.4002994319
H        3.9421799908   -0.9727440092    2.5814124818
H        1.8273114257   -3.2465225911    4.2958792976
H        1.5788642020   -1.1189558585    8.0338218917
H        1.6251470360    1.0456660894    4.3243209409
22   

C        1.8952323141   -1.0344713112   -0.1523768815
C        0.6718798666   -0.9046049027    0.5139933872
C        3.0785079375   -1.1722497891    0.5815539741
C        1.8839559303   -2.3111821417    6.2347673435
C        0.6335979653   -0.9101546355    1.9134280494
C        3.0377446077   -1.1774406439    1.9811241944
C        1.9557371563   -2.2794311863    4.8376350007
C        1.6204489046   -1.1350495264    6.9461846301
C        1.4989408170    0.0954188702    4.8689490754
C        1.8176335017   -1.0384836922    2.6556548496
C        1.7730643706   -1.0726723899    4.1455982304
C        1.4251152124    0.0724799123    6.2666251140
Cl       1.0898285401    1.5345368685    7.1526115200
H        1.9259868464   -1.0307007201   -1.2383089473
H       -0.2486065112   -0.8017774529   -0.0535576304
H        4.0289816600   -1.2762307165    0.0660524135
H        2.0296346872   -3.2477937067    6.7655903378
H       -0.3165056669   -0.8162794300    2.4313514313
H        3.9559464181   -1.2869502208    2.5508219842
H        2.1519962214   -3.1911234888    4.2806997408
H        1.5629185004   -1.1542418530    8.0304512593
H        1.3445566817    1.0303407009    4.3392630687
22   

C        1.8883680765   -1.0377488891   -0.1529712372
C        0.6997826267   -0.7362405227    0.5200114729
C        3.0438967709   -1.3412234872    0.5746696989
C        2.0400241543   -2.2666507781    6.2409755456
C        0.6688184309   -0.7352966724    1.9196055650
C        3.0108115143   -1.3398013514    1.9744112204
C        2.1151954163   -2.2309898005    4.8441296267
C        1.6243702078   -1.1318368846    6.9462135759
C        1.3577664909    0.0653168941    4.8632968822
C        1.8270618177   -1.0272932529    2.6580241702
C        1.7857186150   -1.0595287318    4.1437948490
C        1.2794980058    0.0378127148    6.2605771978
Cl       0.7540673951    1.4478232369    7.1385546677
H        1.9131333415   -1.0391855471   -1.2390629305
H       -0.2004656757   -0.5062282811   -0.0426946092
H        3.9671508435   -1.5787580148    0.0539745197
H        2.2999104145   -3.1754636843    6.7764661946
H       -0.2585018587   -0.5118410559    2.4390094508
H        3.9096729036   -1.5763752745    2.5361449829
H        2.4255690383   -3.1152526726    4.2950853495
H        1.5634151406   -1.1545694569    8.0302245999
H        1.0889173973    0.9730798848    4.3322554593
22   

C        1.8896391920   -1.0423858176   -0.1568819483
C        0.7456723576   -0.6023112119    0.5155979701
C        2.9934356122   -1.4961185493    0.5714588330
C        2.1734100136   -2.2324281949    6.2549100068
C        0.7071759389   -0.6144591702    1.9149359956
C        2.9530851067   -1.5080459360    1.9708801670
C        2.2346862575   -2.2058628176    4.8571913082
C        1.6388697779   -1.1434627721    6.9509000259
C        1.2275098675   -0.0092139559    4.8568225164
C        1.8123664720   -1.0628142956    2.6584295290
C        1.7677294487   -1.0902956136    4.1416390383
C        1.1628067198   -0.0281449685    6.2548501357
Cl       0.4954512470    1.3281041026    7.1211344826
H        1.9201763847   -1.0329834684   -1.2427879437
H       -0.1153152706   -0.2537902609   -0.0476380109
H        3.8837550668   -1.8379056113    0.0514049172
H        2.5371063773   -3.0998021868    6.7986191015
H       -0.1919167448   -0.2829185953    2.4256510452
H        3.8195190332   -1.8545758723    2.5259666662
H        2.6378068279   -3.0610850571    4.3231109898
H        1.5889195567   -1.1593961361    8.0355959373
H        0.8633182681    0.8643297105    4.3257472066
22   

C        1.8911819865   -1.0397900815   -0.1596803710
C        0.8004777126   -0.4813642158    0.5107391984
C        2.9272219274   -1.6258994497    0.5711016854
C        2.2885386560   -2.1602965425    6.2804763338
C        0.7459671063   -0.5101844849    1.9093087604
C        2.8710850057   -1.6546094927    1.9696328901
C        2.3269167383   -2.1565655716    4.8817038118
C        1.6533327727   -1.1208505826    6.9648805404
C        1.0987674081   -0.0794250522    4.8563753338
C        1.7773603220   -1.1009347000    2.6615884441
C        1.7289932977   -1.1180829508    4.1453811169
C        1.0566273464   -0.0759586138    6.2553296225
Cl       0.2721794967    1.2263778456    7.1063007600
H        1.9342065197   -1.0167848807   -1.2449627562
H       -0.0083722874   -0.0265154173   -0.0539698293
H        3.7804589831   -2.0550175971    0.0536072968
H        2.7496995855   -2.9730826703    6.8345132796
H       -0.1216655441   -0.0839179357    2.4023454960
H        3.7005236206   -2.0960273641    2.5122709129
H        2.8108740708   -2.9834762221    4.3721735051
H        1.6214733651   -1.1192269679    8.0503776993
H        0.6482046368    0.7549877267    4.3302285832
22   

C        1.8980567480   -1.0331264699   -0.1731785610
C        0.8839389791   -0.3551786201    0.5031451113
C        2.8495441133   -1.7490169119    0.5530058628
C        2.4093370228   -2.0736755895    6.2947492437
C        0.8195491796   -0.3959394278    1.9010808049
C        2.7840377797   -1.7892745973    1.9507165399
C        2.4309130914   -2.0844159633    4.8956159343
C        1.6732083264   -1.1039208534    6.9762135449
C        0.9869787274   -0.1583220916    4.8623963611
C        1.7593974203   -1.1220681199    2.6572113154
C        1.7116182910   -1.1353078037    4.1449256150
C        0.9606418303   -0.1410444357    6.2616243200
Cl       0.0524165424    1.0824978374    7.1068136157
H        1.9483964274   -1.0008360993   -1.2579133694
H        0.1398802261    0.2038822341   -0.0571118316
H        3.6478594367   -2.2703394421    0.0325151937
H        2.9640500591   -2.8233862455    6.8519846911
H       -0.0010169267    0.1319893568    2.3722124197
H        3.5657108322   -2.3344427152    2.4659493339
H        3.0012824265   -2.8700106385    4.4143466739
H        1.6541137352   -1.0916592992    8.0619475413
H        0.4428322088    0.6294729184    4.3567296657
22   

C        1.8784172012   -1.0458569504   -0.1862066314
C        1.0060271944   -0.2077082409    0.5047600919
C        2.7142781568   -1.9009917875    0.5282931320
C        2.5507678413   -1.9574362042    6.3014593333
C        0.9693463852   -0.2243208145    1.9043124404
C        2.6769274472   -1.9169263704    1.9274394217
C        2.5905390630   -1.9439128906    4.9026564373
C        1.6757431134   -1.1164500639    6.9865284052
C        0.8840314177   -0.2522162776    4.8756588365
C        1.8012636599   -1.0769674580    2.6562394865
C        1.7601218999   -1.0926428854    4.1478339143
C        0.8386673964   -0.2601985157    6.2744908927
Cl      -0.2587672138    0.7949711073    7.1225291435
H        1.9065146475   -1.0326063163   -1.2721484282
H        0.3512007992    0.4618654393   -0.0456729959
H        3.3973494116   -2.5576184673   -0.0030176407
H        3.2037850067   -2.6253843270    6.8561989444
H        0.2653820387    0.4556820471    2.3649123709
H        3.3550120946   -2.6070208902    2.4112649892
H        3.2944073261   -2.6238054804    4.4415912711
H        1.6420115912   -1.1241000356    8.0719522379
H        0.2064463717    0.4373913960    4.3918091046
