22   

C        1.8654148853   -1.0660886578   -0.1744318453
C        1.1522270125   -0.0843875064    0.5133809870
C        2.5628527390   -2.0384043056    0.5420545032
C        2.6657756847   -1.8148235190    6.3045494039
C        1.1394482465   -0.0730449816    1.9132880421
C        2.5495681728   -2.0259419979    1.9417598925
C        2.7295918291   -1.7829406733    4.9070282501
C        1.6636551139   -1.1135363689    6.9758558948
C        0.7918048178   -0.3553008618    4.8549482797
C        1.8458659547   -1.0347861920    2.6605102600
C        1.8023724922   -1.0437055815    4.1483916348
C        0.7214036623   -0.3824895849    6.2524946771
Cl      -0.5422087712    0.4823613971    7.0841138252
H        1.8746734301   -1.0752708385   -1.2607358181
H        0.6073073166    0.6756753852   -0.0392737754
H        3.1114766173   -2.8117618360    0.0120308578
H        3.3994024562   -2.3839478011    6.8686179398
H        0.5858652499    0.7243759277    2.3946060950
H        3.0826889945   -2.8219911215    2.4475001993
H        3.5384774510   -2.3277995812    4.4348710433
H        1.6101835410   -1.1359650104    8.0602778702
H        0.0182904109    0.2009934897    4.3405299962
22   

C        1.8817488819   -1.0657788289   -0.1571827054
C        1.2826708394   -0.0051050081    0.5261875320
C        2.4482331080   -2.1209287860    0.5616140888
C        2.7324626243   -1.6791318855    6.3070251580
C        1.2513589074    0.0003645067    1.9257567691
C        2.4167709842   -2.1137936501    1.9611915935
C        2.7884021354   -1.6678720082    4.9088814893
C        1.6576278988   -1.0792117934    6.9682458364
C        0.6999760676   -0.4606608557    4.8379388461
C        1.8215456537   -1.0507702391    2.6664203553
C        1.7750222552   -1.0547873246    4.1503950299
C        0.6368224837   -0.4682757482    6.2360808761
Cl      -0.7093884658    0.2722285045    7.0576378921
H        1.9054177509   -1.0707726826   -1.2432910262
H        0.8428515359    0.8184831891   -0.0290447009
H        2.9088406146   -2.9510344771    0.0336699310
H        3.5263903333   -2.1513809718    6.8787829470
H        0.7943951678    0.8456773329    2.4299465355
H        2.8442715524   -2.9573853204    2.4930435953
H        3.6417566723   -2.1249653375    4.4185079359
H        1.6096842546   -1.0859489815    8.0531315060
H       -0.1165357198   -0.0001393288    4.2926730820
22   

C        1.8897166346   -1.0596649998   -0.1503390759
C        1.4065279730    0.0545584391    0.5422180607
C        2.3238466647   -2.1843923771    0.5576543258
C        2.7969500173   -1.5620473025    6.2942062324
C        1.3560480750    0.0424516740    1.9411845361
C        2.2730929620   -2.1946874090    1.9567399073
C        2.8332146591   -1.5736498270    4.8954165028
C        1.6720167372   -1.0636533416    6.9590704404
C        0.6272971895   -0.5893239252    4.8319910469
C        1.7841173881   -1.0842979898    2.6639067469
C        1.7452959146   -1.0927938592    4.1473274417
C        0.5833067456   -0.5743054305    6.2308789086
Cl      -0.8177393795    0.0481648755    7.0584147962
H        1.9289549169   -1.0509028882   -1.2359701453
H        1.0731135066    0.9317399935   -0.0049440051
H        2.6990901145   -3.0516623456    0.0219492145
H        3.6434982243   -1.9361659687    6.8630873257
H        0.9914960518    0.9190074673    2.4683163687
H        2.6050332081   -3.0769844533    2.4955171477
H        3.7160012308   -1.9487907469    4.3863890958
H        1.6391618829   -1.0522492908    8.0444766776
H       -0.2259854202   -0.2151730862    4.2755081463
22   

C        1.8855098094   -1.0596043397   -0.1460420304
C        1.5405692295    0.1011456282    0.5541189278
C        2.1698145927   -2.2372097141    0.5533975082
C        2.8303650735   -1.4267490583    6.2874853120
C        1.4770951358    0.0822081567    1.9524893762
C        2.1058322816   -2.2540356318    1.9519650952
C        2.8579240961   -1.4524009743    4.8886683277
C        1.6604418730   -1.0480185905    6.9551465831
C        0.5543650713   -0.7193772398    4.8311527391
C        1.7495135613   -1.0986058406    2.6620860418
C        1.7150827967   -1.1100584424    4.1483505031
C        0.5185943713   -0.6907296399    6.2301414861
Cl      -0.9352221603   -0.2112141399    7.0617293861
H        1.9354650063   -1.0456417454   -1.2311778098
H        1.3252859181    1.0185044072    0.0136598282
H        2.4409770409   -3.1388884070    0.0117407103
H        3.7173676204   -1.6963662211    6.8538456109
H        1.2199638072    0.9881242738    2.4936316067
H        2.3276587677   -3.1699211424    2.4917896044
H        3.7693698529   -1.7340221357    4.3693823355
H        1.6340815756   -1.0255560871    8.0405557235
H       -0.3318884394   -0.4409186358    4.2696066980
22   

C        1.8867684099   -1.0679395551   -0.1450569648
C        1.7113638080    0.1298652687    0.5563512581
C        2.0049108380   -2.2746451604    0.5532628521
C        2.8667302466   -1.2676091591    6.2912661626
C        1.6518194828    0.1191497109    1.9550143484
C        1.9449530889   -2.2828233294    1.9521273006
C        2.9005042663   -1.2904607791    4.8925173744
C        1.6558375284   -1.0417379146    6.9557740168
C        0.5214062367   -0.8600979011    4.8288795634
C        1.7601612421   -1.0886231026    2.6611787249
C        1.7249479228   -1.0963011851    4.1517417739
C        0.4787517447   -0.8353056554    6.2278145315
Cl      -1.0266968952   -0.5468255045    7.0557074817
H        1.9335271578   -1.0606871609   -1.2304001922
H        1.6236359658    1.0685306884    0.0167273620
H        2.1441648915   -3.2053438287    0.0107114066
H        3.7794910760   -1.4220112303    6.8598276795
H        1.5225439345    1.0494942441    2.5004497000
H        2.0392084886   -3.2192093713    2.4942906263
H        3.8393014930   -1.4573401834    4.3722401151
H        1.6241534742   -1.0222412073    8.0410977680
H       -0.3898110190   -0.6969842215    4.2618173149
22   

C        1.8770478978   -1.0790290896   -0.1465643484
C        1.9016239314    0.1358288234    0.5471119671
C        1.8125647947   -2.2849798680    0.5601396488
C        2.8893632263   -1.0907735468    6.3028693056
C        1.8618624204    0.1430628137    1.9465281020
C        1.7729046915   -2.2749138886    1.9597074132
C        2.9384748042   -1.0969406571    4.9043882578
C        1.6527462561   -1.0437505363    6.9567087125
C        0.5233633368   -1.0093516048    4.8197192381
C        1.7974820640   -1.0625048667    2.6608618016
C        1.7546367197   -1.0562277842    4.1535174278
C        0.4647954462   -1.0028531097    6.2182965222
Cl      -1.0740684769   -0.9443514727    7.0328368360
H        1.9075195291   -1.0859042104   -1.2324888032
H        1.9510867073    1.0734274960    0.0008188346
H        1.7928036370   -3.2292925257    0.0236256762
H        3.8095818535   -1.1224349016    6.8794395391
H        1.8802448357    1.0852815384    2.4865289561
H        1.7222299218   -3.2105621970    2.5090049947
H        3.8954001521   -1.1333551528    4.3916877906
H        1.6087908455   -1.0387552747    8.0417682515
H       -0.3963963192   -0.9776984768    4.2438936661
22   

C        1.8731368466   -1.0909387842   -0.1472263047
C        2.0889048431    0.1088116686    0.5392730452
C        1.6243289943   -2.2681097880    0.5667834224
C        2.8687709111   -0.9165679127    6.3128431995
C        2.0583118205    0.1291716269    1.9387864214
C        1.5943191619   -2.2449180384    1.9664020109
C        2.9311753123   -0.9102793640    4.9149019638
C        1.6320426711   -1.0465395324    6.9548325278
C        0.5293714741   -1.1658416217    4.8070943466
C        1.8187629009   -1.0492129978    2.6618444988
C        1.7598458739   -1.0256666352    4.1515139173
C        0.4575634596   -1.1734168898    6.2050127042
Cl      -1.0810103634   -1.3420721315    7.0046058680
H        1.8958152867   -1.1078967042   -1.2332310975
H        2.2773616515    1.0251403542   -0.0128043591
H        1.4528494106   -3.2001522705    0.0358730444
H        3.7792001784   -0.8234467937    6.8982350829
H        2.2185228004    1.0616581197    2.4720990519
H        1.3981915952   -3.1585252730    2.5201467558
H        3.8896242073   -0.8171913143    4.4123534705
H        1.5778622925   -1.0526419437    8.0394235205
H       -0.3804250535   -1.2668500122    4.2234965083
22   

C        1.8694886711   -1.0925246218   -0.1504215117
C        2.2486664573    0.0630307778    0.5404303354
C        1.4553645980   -2.2245673185    0.5591920576
C        2.8387930633   -0.7581387383    6.3065432140
C        2.2164639975    0.0840298570    1.9398600882
C        1.4237827199   -2.2013160119    1.9587350937
C        2.8980574286   -0.7532402354    4.9084903479
C        1.6299327988   -1.0399290623    6.9522647186
C        0.5484456805   -1.3134687245    4.8079694958
C        1.8127546079   -1.0512419071    2.6610595672
C        1.7496278639   -1.0200745335    4.1461833151
C        0.4805134446   -1.3207081253    6.2060282784
Cl      -1.0228575748   -1.6787254181    7.0102438922
H        1.8934535664   -1.1097356062   -1.2363952330
H        2.5646233474    0.9455619837   -0.0084447296
H        1.1572469770   -3.1220601944    0.0247619615
H        3.7310323252   -0.5472813589    6.8893632652
H        2.5010953509    0.9860796452    2.4734715171
H        1.1015032998   -3.0826557089    2.5055728225
H        3.8385012113   -0.5460172572    4.4061712942
H        1.5785994891   -1.0456916200    8.0369964907
H       -0.3444822425   -1.5316004802    4.2305385329
22   

C        1.8715394274   -1.0859462078   -0.1512516978
C        2.3880280819    0.0066963677    0.5515154043
C        1.3148560452   -2.1618531089    0.5467507453
C        2.8069732346   -0.6236051450    6.3006282500
C        2.3490331427    0.0215750458    1.9508241655
C        1.2761889710   -2.1451798765    1.9461496386
C        2.8568930247   -0.6267729449    4.9022175546
C        1.6425383684   -1.0328782472    6.9583088115
C        0.5855664647   -1.4481491451    4.8249216078
C        1.7967097633   -1.0559966020    2.6642813309
C        1.7438329276   -1.0338390520    4.1472658351
C        0.5277222026   -1.4477016957    6.2233735582
Cl      -0.9228403729   -1.9585162831    7.0420161525
H        1.9013233364   -1.0983338026   -1.2371485572
H        2.8166380133    0.8462350839    0.0116815267
H        0.9133728221   -3.0123938487    0.0032566854
H        3.6731807173   -0.3070613111    6.8748344161
H        2.7411993912    0.8809654575    2.4861585006
H        0.8492405280   -2.9910409200    2.4765697136
H        3.7688369979   -0.3207566954    4.3983249233
H        1.5988186512   -1.0323080691    8.0433894338
H       -0.2880364895   -1.7632574678    4.2634457406
22   

C        1.9239971148   -1.0574211853   -0.1569317735
C        1.4077216532   -2.1643796627    0.5207300533
C        2.3712379242    0.0508030962    0.5661463327
C        0.6237509418   -1.7473948519    6.2200375171
C        1.3402876313   -2.1631384872    1.9190909397
C        2.3038756513    0.0506271708    1.9644159706
C        0.6905682263   -1.7505492517    4.8223177582
C        1.5760799398   -1.0456481773    6.9636232466
C        2.6567440022   -0.3549026948    4.9160460148
C        1.7917720734   -1.0585517889    2.6638525530
C        1.7058053476   -1.0507126246    4.1459949538
C        2.5968406252   -0.3472826095    6.3143273891
Cl       3.7912893565    0.5208865083    7.2390695461
H        1.9761421372   -1.0577115708   -1.2420574650
H        1.0610797038   -3.0289380367   -0.0381412560
H        2.7670787185    0.9163807930    0.0425979879
H       -0.1706360934   -2.2877283797    6.7272245346
H        0.9504772076   -3.0433321299    2.4196608191
H        2.6374028669    0.9341500484    2.4989614805
H       -0.0706764883   -2.2883848623    4.2666365245
H        1.5284375449   -1.0406397392    8.0485329642
H        3.4721085154    0.1759626276    4.4369633827
22   

C        1.9156435964   -1.0542974002   -0.1662576119
C        1.2709779360   -2.0915269197    0.5077697920
C        2.4950768569   -0.0158035713    0.5625104220
C        0.7185243759   -1.8558911778    6.2391497453
C        1.2098223391   -2.0926732371    1.9065387034
C        2.4336008720   -0.0179130066    1.9609020276
C        0.7809404749   -1.8549160517    4.8411146162
C        1.5880794765   -1.0544032504    6.9797542014
C        2.5811412058   -0.2583025957    4.9273792822
C        1.8001875817   -1.0645926496    2.6658985752
C        1.7043515320   -1.0469758786    4.1511526046
C        2.5246968849   -0.2539981509    6.3257402292
Cl       3.6247259307    0.7363878516    7.2451336506
H        1.9627817997   -1.0532311881   -1.2516170192
H        0.8175684327   -2.9025496642   -0.0549556373
H        2.9887246865    0.8006292857    0.0430809666
H       -0.0102991562   -2.4793370694    6.7494622469
H        0.7135399664   -2.9328582299    2.3769509157
H        2.8717578867    0.8285115888    2.4764715384
H        0.0704108245   -2.4803819985    4.3141090205
H        1.5429121833   -1.0524913676    8.0647838360
H        3.3463405287    0.3552198129    4.4682296855
22   

C        1.9066897356   -1.0512420608   -0.1814875726
C        1.1046496645   -1.9741638249    0.4866264859
C        2.6490889760   -0.1307510145    0.5549118168
C        0.8516739411   -1.9949098177    6.2463883550
C        1.0447041234   -1.9772421068    1.8855660477
C        2.5889504689   -0.1340583979    1.9532761412
C        0.9131400034   -1.9899804494    4.8482249835
C        1.5934333376   -1.0745799403    6.9849147125
C        2.4552891207   -0.1477294790    4.9289771502
C        1.7831880809   -1.0595884639    2.6581512216
C        1.7155819753   -1.0676806849    4.1487511403
C        2.3985610147   -0.1469638014    6.3273484752
Cl       3.3294168295    1.0075404308    7.2424803436
H        1.9528253462   -1.0493393294   -1.2668931085
H        0.5232280050   -2.6946606183   -0.0815955096
H        3.2768696885    0.5920529852    0.0415463960
H        0.2237883559   -2.7183099318    6.7590148498
H        0.3992692563   -2.7247019209    2.3263737822
H        3.1928554930    0.6098623540    2.4556234611
H        0.3093224614   -2.7342625224    4.3468612870
H        1.5479747116   -1.0756903994    8.0699381775
H        3.0998822011    0.5991728386    4.4867138080
22   

C        1.9088810164   -1.0314834921   -0.1735917929
C        0.9646766261   -1.8224468812    0.4811012970
C        2.7932615179   -0.2547471204    0.5746719383
C        0.9965259848   -2.1238574770    6.2350906349
C        0.9020282450   -1.8333067174    1.8797617453
C        2.7297187576   -0.2660486566    1.9729326235
C        1.0591569178   -2.1112358131    4.8371189776
C        1.5965067382   -1.1024142384    6.9724765267
C        2.3147991807   -0.0581865591    4.9167786645
C        1.7727584943   -1.0465709340    2.6575503920
C        1.7304121220   -1.0857127287    4.1448657394
C        2.2562170421   -0.0640215401    6.3150452505
Cl       2.9928656289    1.2234310044    7.2293845195
H        1.9577459461   -1.0234085409   -1.2588460281
H        0.2738189135   -2.4296639719   -0.0968289149
H        3.5382739091    0.3546396851    0.0710253461
H        0.4825450804   -2.9319184321    6.7480714331
H        0.1365866619   -2.4511882977    2.3334195071
H        3.4604057539    0.3305941221    2.5061847954
H        0.5938163752   -2.9380281749    4.3139983928
H        1.5498663324   -1.1085170601    8.0574287227
H        2.8100499810    0.7856811328    4.4526751826
22   

C        1.9067448260   -1.0300715493   -0.1593741732
C        0.8725371078   -1.7061712712    0.4920847390
C        2.8818230516   -0.3680862949    0.5902994339
C        1.1245264432   -2.1862752496    6.2345777785
C        0.8132419300   -1.7187954840    1.8907538739
C        2.8211121420   -0.3809049196    1.9888181565
C        1.1819078091   -2.1745217916    4.8364758645
C        1.6113103762   -1.0979221061    6.9631943906
C        2.2089704885    0.0081459459    4.8999766713
C        1.7828766061   -1.0524508686    2.6617666373
C        1.7291517812   -1.0788016672    4.1451978944
C        2.1547367147    0.0039510549    6.2984904673
Cl       2.7538905081    1.3665742802    7.2039517371
H        1.9534584069   -1.0203306054   -1.2447035561
H        0.1111734838   -2.2201879197   -0.0876332224
H        3.6915548943    0.1531046029    0.0875958690
H        0.7046367293   -3.0431312341    6.7539401764
H       -0.0107306491   -2.2374939116    2.3695900699
H        3.6046660597    0.1226098366    2.5456908071
H        0.8135445985   -3.0389460226    4.2936855363
H        1.5685522825   -1.1024611405    8.0483081389
H        2.6144683876    0.8850536781    4.4072663656
22   

C        1.9148346703   -1.0233615656   -0.1566800920
C        0.8042233352   -1.5818681844    0.4829403592
C        2.9589466196   -0.4878053074    0.6033782967
C        1.2366795797   -2.2518681581    6.2268471874
C        0.7396445688   -1.6059214805    1.8811715718
C        2.8925785165   -0.5122113850    2.0016255963
C        1.2895635568   -2.2390873059    4.8286056275
C        1.6090494262   -1.1140092441    6.9497163532
C        2.0867040171    0.0414969902    4.8814631845
C        1.7849248260   -1.0753860717    2.6565474456
C        1.7099504169   -1.0893605757    4.1386937575
C        2.0364600750    0.0366801133    6.2802071991
Cl       2.5013353455    1.4541907618    7.1800897956
H        1.9657834040   -1.0042035184   -1.2416914352
H       -0.0107436641   -1.9942216109   -0.1050618912
H        3.8233558062   -0.0537745443    0.1090023919
H        0.9102299719   -3.1460498276    6.7503922374
H       -0.1334268364   -2.0303697508    2.3675037513
H        3.7142215761   -0.1010318369    2.5803700315
H        1.0120405570   -3.1305844606    4.2741609964
H        1.5698550890   -1.1189197680    8.0349595024
H        2.4111827648    0.9424916364    4.3709225972
22   

C        1.9206998642   -1.0215360922   -0.1551111429
C        0.7461790444   -1.4430900767    0.4766870731
C        3.0222760608   -0.6282557674    0.6119908473
C        1.3713733343   -2.2834174340    6.2362283024
C        0.6758037405   -1.4740365758    1.8745322644
C        2.9496769958   -0.6598426730    2.0098415545
C        1.4162901045   -2.2798422720    4.8376390444
C        1.6161311461   -1.1020049140    6.9447876866
C        1.9521565914    0.0774595191    4.8619042140
C        1.7803512185   -1.0916433592    2.6528279085
C        1.6962753894   -1.0956750306    4.1372228300
C        1.9094783729    0.0825682087    6.2609724129
Cl       2.2213972314    1.5518276064    7.1436088112
H        1.9762068886   -0.9964878510   -1.2397771283
H       -0.1128227888   -1.7429918369   -0.1167173342
H        3.9343699654   -0.2973243401    0.1235731337
H        1.1506315997   -3.2030358445    6.7708374962
H       -0.2409783624   -1.7914938055    2.3625712838
H        3.8074782726   -0.3535346907    2.6014562879
H        1.2378699601   -3.1988156237    4.2868628370
H        1.5831795944   -1.0994123394    8.0302452401
H        2.1799739448    0.9975975486    4.3329681494
22   

C        1.9192682361   -1.0250365874   -0.1524263793
C        0.6987459421   -1.2834868316    0.4806388015
C        3.0676771329   -0.7967668720    0.6134053999
C        1.5297347314   -2.3117807070    6.2465354114
C        0.6289114095   -1.3160455670    1.8785134933
C        2.9950183880   -0.8299401809    2.0112568638
C        1.5732877159   -2.3113380562    4.8478669039
C        1.6226724024   -1.1039192388    6.9472270328
C        1.8045148162    0.0953267007    4.8563782338
C        1.7783251658   -1.0974185842    2.6530004908
C        1.7017855179   -1.1057792903    4.1420287539
C        1.7621383264    0.1042939098    6.2554908805
Cl       1.8846813453    1.6069853075    7.1283617048
H        1.9746035943   -0.9987005550   -1.2370704508
H       -0.1953825061   -1.4561289142   -0.1115540283
H        4.0157263686   -0.5922421409    0.1241747008
H        1.4267051908   -3.2484958353    6.7870784085
H       -0.3197956184   -1.5094278829    2.3706307397
H        3.8862789056   -0.6497392132    2.6053610830
H        1.5090692577   -3.2471148315    4.3001056130
H        1.5900362653   -1.0984911864    8.0326835624
H        1.9153680114    1.0314084938    4.3178790986
22   

C        1.9066783736   -1.0356910989   -0.1520775490
C        0.6687636802   -1.1029636662    0.4965345595
C        3.0863558128   -0.9889250176    0.5989535732
C        1.7064707469   -2.3235023865    6.2452077037
C        0.6122555796   -1.1235409782    1.8952476467
C        3.0269456117   -1.0096382391    1.9976995220
C        1.7616368403   -2.3127821488    4.8469766542
C        1.6219413151   -1.1165076167    6.9487184195
C        1.6479341805    0.1025515427    4.8614924565
C        1.7912002247   -1.0771869095    2.6538733323
C        1.7327031871   -1.0985959668    4.1458371986
C        1.5923064362    0.1013520335    6.2602018733
Cl       1.4870809077    1.6033678500    7.1364862903
H        1.9518030237   -1.0193160852   -1.2373898036
H       -0.2485465014   -1.1387932037   -0.0841815457
H        4.0485167763   -0.9360988308    0.0975348330
H        1.7292481734   -3.2671150957    6.7830871542
H       -0.3479404962   -1.1751177420    2.4002994299
H        3.9421800101   -0.9727445029    2.5814124920
H        1.8273112983   -3.2465225940    4.2958792872
H        1.5788646691   -1.1189558364    8.0338218982
H        1.6251474008    1.0456660976    4.3243209347
22   

C        1.8952461320   -1.0343596093   -0.1523752921
C        0.6718858502   -0.9045594184    0.5139937467
C        3.0785255120   -1.1721037168    0.5815562236
C        1.8839049694   -2.3111930884    6.2347644894
C        0.6335979653   -0.9101546355    1.9134280494
C        3.0377571162   -1.1773371126    1.9811261635
C        1.9557371563   -2.2794311863    4.8376350007
C        1.6203239900   -1.1350752990    6.9461785752
C        1.4988232201    0.0953948979    4.8689439560
C        1.8176335017   -1.0384836922    2.6556548496
C        1.7730643706   -1.0726723899    4.1455982304
C        1.4249509345    0.0724465942    6.2666173432
Cl       1.0895587900    1.5344827767    7.1525981147
H        1.9260046339   -1.0305579030   -1.2383071374
H       -0.2486016945   -0.8017467602   -0.0535580603
H        4.0290062311   -1.2760237895    0.0660552957
H        2.0296004848   -3.2478020286    6.7655875112
H       -0.3165105410   -0.8163229975    2.4313504108
H        3.9559624826   -1.2868123643    2.5508247937
H        2.1520451943   -3.1911141656    4.2807017594
H        1.5627594939   -1.1542748287    8.0304432662
H        1.3444001635    1.0303095013    4.3392565134
22   

C        1.8884052985   -1.0376176696   -0.1529688641
C        0.6997986361   -0.7361872651    0.5200117835
C        3.0439441101   -1.3410518305    0.5746733356
C        2.0399522637   -2.2666778240    6.2409709835
C        0.6688184309   -0.7352966724    1.9196055650
C        3.0108448146   -1.3396796507    1.9744145903
C        2.1151954163   -2.2309898005    4.8441296267
C        1.6241932558   -1.1319003909    6.9462049579
C        1.3575994050    0.0652586142    4.8632905511
C        1.8270618177   -1.0272932529    2.6580241702
C        1.7857186150   -1.0595287318    4.1437948490
C        1.2792649068    0.0377310115    6.2605666571
Cl       0.7536847135    1.4476907390    7.1385361845
H        1.9131811952   -1.0390178818   -1.2390603617
H       -0.2004532145   -0.5061929205   -0.0426959449
H        3.9672171631   -1.5785148870    0.0539792234
H        2.2998628522   -3.1754842929    6.7764607414
H       -0.2585160740   -0.5118933479    2.4390065406
H        3.9097154272   -1.5762132714    2.5361505457
H        2.4256391488   -3.1152293442    4.2950874288
H        1.5631900953   -1.1546507497    8.0302129021
H        1.0886949207    0.9730050711    4.3322489192
22   

C        1.8896780978   -1.0422971650   -0.1568786698
C        0.7456892380   -0.6022753723    0.5155986613
C        2.9934846426   -1.4960028386    0.5714638239
C        2.1733415699   -2.2324644239    6.2549062676
C        0.7071759389   -0.6144591702    1.9149359956
C        2.9531190135   -1.5079639707    1.9708843903
C        2.2346862575   -2.2058628176    4.8571913082
C        1.6387002452   -1.1435481004    6.9508944259
C        1.2273487512   -0.0092910609    4.8568201029
C        1.8123664720   -1.0628142956    2.6584295290
C        1.7677294487   -1.0902956136    4.1416390383
C        1.1625827291   -0.0282543018    6.2548443533
Cl       0.4950836435    1.3279269480    7.1211242813
H        1.9202263531   -1.0328701744   -1.2427841422
H       -0.1153023281   -0.2537670530   -0.0476391257
H        3.8838237375   -1.8377417317    0.0514118836
H        2.5370619903   -3.0998295160    6.7986134559
H       -0.1919336784   -0.2829554886    2.4256448763
H        3.8195618693   -1.8544665285    2.5259740595
H        2.6378744939   -3.0610535813    4.3231116809
H        1.5887042166   -1.1595054631    8.0355878703
H        0.8631033790    0.8642326619    4.3257491231
22   

C        1.8912036828   -1.0397536782   -0.1596784080
C        0.8004874091   -0.4813496577    0.5107397302
C        2.9272488735   -1.6258521792    0.5711046190
C        2.2884847926   -2.1603334876    6.2804746916
C        0.7459671063   -0.5101844849    1.9093087604
C        2.8711033382   -1.6545760422    1.9696350852
C        2.3269167383   -2.1565655716    4.8817038118
C        1.6531981674   -1.1209384299    6.9648801725
C        1.0986372375   -0.0795040764    4.8563782586
C        1.7773603220   -1.1009347000    2.6615884441
C        1.7289932977   -1.1180829508    4.1453811169
C        1.0564481211   -0.0760713234    6.2553311697
Cl       0.2718852800    1.2261952251    7.1063033879
H        1.9342342522   -1.0167382491   -1.2449603378
H       -0.0083650018   -0.0265064830   -0.0539703864
H        3.7804967530   -2.0549505740    0.0536116984
H        2.7496656464   -2.9731099984    6.8345091553
H       -0.1216779222   -0.0839340355    2.4023367040
H        3.7005474713   -2.0959820531    2.5122742096
H        2.8109281669   -2.9834446568    4.3721738952
H        1.6213028977   -1.1193394912    8.0503763137
H        0.6480290136    0.7548895877    4.3302408850
22   

C        1.8980534604   -1.0331304198   -0.1731795446
C        0.8839378697   -0.3551805050    0.5031448936
C        2.8495400817   -1.7490217754    0.5530043868
C        2.4093028705   -2.0737045725    6.2947489114
C        0.8195491796   -0.3959394278    1.9010808049
C        2.7840351726   -1.7892779187    1.9507150838
C        2.4309130914   -2.0844159633    4.8956159343
C        1.6731217659   -1.1039915860    6.9762151867
C        0.9868922077   -0.1583877344    4.8624002737
C        1.7593974203   -1.1220681199    2.6572113154
C        1.7116182910   -1.1353078037    4.1449256150
C        0.9605246812   -0.1411368515    6.2616280080
Cl       0.0522230433    1.0823469283    7.1068200402
H        1.9483919031   -1.0008410440   -1.2579144387
H        0.1398794706    0.2038809838   -0.0571118978
H        3.6478537871   -2.2703463932    0.0325133243
H        2.9640298897   -2.8234062069    6.8519825743
H       -0.0010174917    0.1319934729    2.3722055192
H        3.5657085252   -2.3344478604    2.4659450489
H        3.0013192423   -2.8699847283    4.4143486644
H        1.6540047189   -1.0917495085    8.0619490052
H        0.4427104961    0.6293879822    4.3567424199
22   

C        1.8784171799   -1.0458569625   -0.1862066303
C        1.0060271842   -0.2077082444    0.5047600919
C        2.7142781307   -1.9009918019    0.5282931341
C        2.5507678382   -1.9574362009    6.3014593362
C        0.9693463852   -0.2243208145    1.9043124404
C        2.6769274327   -1.9169263798    1.9274394224
C        2.5905390630   -1.9439128906    4.9026564373
C        1.6757431072   -1.1164500699    6.9865284097
C        0.8840314066   -0.2522162929    4.8756588378
C        1.8012636599   -1.0769674580    2.6562394865
C        1.7601218999   -1.0926428854    4.1478339143
C        0.8386673826   -0.2601985346    6.2744908916
Cl      -0.2587672381    0.7949710700    7.1225291380
H        1.9065146257   -1.0326063365   -1.2721484287
H        0.3512007852    0.4618654389   -0.0456729915
H        3.3973493761   -2.5576184902   -0.0030176373
H        3.2037850013   -2.6253843198    6.8561989581
H        0.2653820462    0.4556820557    2.3649123707
H        3.3550120713   -2.6070209080    2.4112649881
H        3.2944073321   -2.6238054766    4.4415912743
H        1.6420115792   -1.1241000289    8.0719522423
H        0.2064463400    0.4373913673    4.3918091147
