22   

C        1.8654113641   -1.0660914355   -0.1744317655
C        1.1522256107   -0.0843886598    0.5133809776
C        2.5628480158   -2.0384079000    0.5420546671
C        2.6657757817   -1.8148233742    6.3045494128
C        1.1394482465   -0.0730449816    1.9132880421
C        2.5495647139   -2.0259445251    1.9417600582
C        2.7295918291   -1.7829406733    4.9070282501
C        1.6636553188   -1.1135360289    6.9758558846
C        0.7918050197   -0.3553005600    4.8549482496
C        1.8458659547   -1.0347861920    2.6605102600
C        1.8023724922   -1.0437055815    4.1483916348
C        0.7214039387   -0.3824891521    6.2524946540
Cl      -0.5422082972    0.4823621187    7.0841137997
H        1.8746689767   -1.0752743906   -1.2607357395
H        0.6073064572    0.6756745541   -0.0392738765
H        3.1114698934   -2.8117669019    0.0120310940
H        3.3994025362   -2.3839476594    6.8686179635
H        0.5858667106    0.7243769344    2.3946061269
H        3.0826841242   -2.8219943975    2.4475007102
H        3.5384773137   -2.3277995992    4.4348707813
H        1.6101837845   -1.1359645557    8.0602778657
H        0.0182907076    0.2009938685    4.3405298905
22   

C        1.8817446902   -1.0657813675   -0.1571826856
C        1.2826691656   -0.0051060690    0.5261874996
C        2.4482275453   -2.1209320383    0.5616141713
C        2.7324627304   -1.6791317909    6.3070251553
C        1.2513589074    0.0003645067    1.9257567691
C        2.4167669849   -2.1137959061    1.9611917079
C        2.7884021354   -1.6678720082    4.9088814893
C        1.6576281501   -1.0792114524    6.9682458464
C        0.6999762841   -0.4606604972    4.8379388577
C        1.8215456537   -1.0507702391    2.6664203553
C        1.7750222552   -1.0547873246    4.1503950299
C        0.6368227985   -0.4682752684    6.2360808988
Cl      -0.7093879665    0.2722292641    7.0576379613
H        1.9054124257   -1.0707759375   -1.2432910292
H        0.8428504664    0.8184824068   -0.0290447953
H        2.9088327295   -2.9510390442    0.0336700553
H        3.5263903777   -2.1513810084    6.8787829220
H        0.7943968247    0.8456782107    2.4299465776
H        2.8442661700   -2.9573881061    2.4930440015
H        3.6417564280   -2.1249655427    4.4185076720
H        1.6096845713   -1.0859485563    8.0531315181
H       -0.1165354020   -0.0001388198    4.2926730621
22   

C        1.8897136309   -1.0596663438   -0.1503391305
C        1.4065267623    0.0545578766    0.5422180150
C        2.3238427229   -2.1843940902    0.5576542780
C        2.7969500910   -1.5620471835    6.2942062306
C        1.3560480750    0.0424516740    1.9411845361
C        2.2730901539   -2.1946886086    1.9567399033
C        2.8332146591   -1.5736498270    4.8954165028
C        1.6720168849   -1.0636530633    6.9590704476
C        0.6272972915   -0.5893237085    4.8319910521
C        1.7841173881   -1.0842979898    2.6639067469
C        1.7452959146   -1.0927938592    4.1473274417
C        0.5833069078   -0.5743051005    6.2308789178
Cl      -0.8177391281    0.0481653973    7.0584148123
H        1.9289510791   -1.0509046242   -1.2359702308
H        1.0731127137    0.9317395688   -0.0049440844
H        2.6990845394   -3.0516647439    0.0219491367
H        3.6434982913   -1.9361658928    6.8630873055
H        0.9914972174    0.9190079336    2.4683164027
H        2.6050294668   -3.0769859563    2.4955172278
H        3.7160011182   -1.9487909009    4.3863890070
H        1.6391620792   -1.0522489287    8.0444766855
H       -0.2259852879   -0.2151728038    4.2755081445
22   

C        1.8855094897   -1.0596045040   -0.1460420237
C        1.5405690976    0.1011455395    0.5541189150
C        2.1698141592   -2.2372098948    0.5533975358
C        2.8303650992   -1.4267490150    6.2874853124
C        1.4770951358    0.0822081567    1.9524893762
C        2.1058319448   -2.2540357451    1.9519651219
C        2.8579240961   -1.4524009743    4.8886683277
C        1.6604419130   -1.0480184996    6.9551465849
C        0.5543650915   -0.7193771780    4.8311527428
C        1.7495135613   -1.0986058406    2.6620860418
C        1.7150827967   -1.1100584424    4.1483505031
C        0.5185944105   -0.6907295400    6.2301414920
Cl      -0.9352220947   -0.2112139652    7.0617294011
H        1.9354646195   -1.0456419648   -1.2311778062
H        1.3252858424    1.0185043087    0.0136597788
H        2.4409764484   -3.1388886486    0.0117407614
H        3.7173676532   -1.6963661714    6.8538456052
H        1.2199639450    0.9881243202    2.4936315944
H        2.3276583142   -3.1699212658    2.4917896649
H        3.7693698434   -1.7340221566    4.3693823300
H        1.6340816326   -1.0255559486    8.0405557250
H       -0.3318884103   -0.4409185383    4.2696067038
22   

C        1.8867696524   -1.0679394163   -0.1450569107
C        1.7113643033    0.1298653207    0.5563512762
C        2.0049124767   -2.2746449684    0.5532629279
C        2.8667302368   -1.2676091939    6.2912661662
C        1.6518194828    0.1191497109    1.9550143484
C        1.9449542614   -2.2828231818    1.9521273536
C        2.9005042663   -1.2904607791    4.8925173744
C        1.6558375063   -1.0417380187    6.9557740195
C        0.5214062160   -0.8600980026    4.8288795640
C        1.7601612421   -1.0886231026    2.6611787249
C        1.7249479228   -1.0963011851    4.1517417739
C        0.4787517166   -0.8353058013    6.2278145349
Cl      -1.0266969336   -0.5468257563    7.0557074986
H        1.9335287510   -1.0606869865   -1.2304001243
H        1.6236362770    1.0685307164    0.0167273673
H        2.1441672140   -3.2053435604    0.0107115247
H        3.7794910633   -1.4220112403    6.8598276942
H        1.5225434246    1.0494941858    2.5004496784
H        2.0392100560   -3.2192091699    2.4942907046
H        3.8393015029   -1.4573401357    4.3722401176
H        1.6241534410   -1.0222413365    8.0410977712
H       -0.3898110490   -0.6969843627    4.2618173184
22   

C        1.8770478877   -1.0790290883   -0.1465643459
C        1.9016239209    0.1358288267    0.5471119672
C        1.8125647883   -2.2849798684    0.5601396477
C        2.8893632270   -1.0907735468    6.3028693060
C        1.8618624204    0.1430628137    1.9465281020
C        1.7729046847   -2.2749138869    1.9597074108
C        2.9384748042   -1.0969406571    4.9043882578
C        1.6527462573   -1.0437505242    6.9567087165
C        0.5233633371   -1.0093515747    4.8197192413
C        1.7974820640   -1.0625048667    2.6608618016
C        1.7546367197   -1.0562277842    4.1535174278
C        0.4647954479   -1.0028530825    6.2182965270
Cl      -1.0740684737   -0.9443514255    7.0328368446
H        1.9075195165   -1.0859042094   -1.2324887983
H        1.9510866876    1.0734274987    0.0008188302
H        1.7928036246   -3.2292925279    0.0236256734
H        3.8095818542   -1.1224349297    6.8794395353
H        1.8802448114    1.0852815385    2.4865289567
H        1.7222298964   -3.2105621917    2.5090049934
H        3.8954001488   -1.1333551712    4.3916877858
H        1.6087908458   -1.0387552600    8.0417682562
H       -0.3963963210   -0.9776984369    4.2438936717
22   

C        1.8731356069   -1.0909385170   -0.1472263474
C        2.0889043450    0.1088117829    0.5392730332
C        1.6243273722   -2.2681094481    0.5667833630
C        2.8687708972   -0.9165678985    6.3128431990
C        2.0583118205    0.1291716269    1.9387864214
C        1.5943180067   -2.2449177995    1.9664019639
C        2.9311753123   -0.9102793640    4.9149019638
C        1.6320426452   -1.0465394269    6.9548325258
C        0.5293714547   -1.1658414616    4.8070943437
C        1.8187629009   -1.0492129978    2.6618444988
C        1.7598458739   -1.0256666352    4.1515139173
C        0.4575634270   -1.1734166756    6.2050126976
Cl      -1.0810104235   -1.3420717145    7.0046058484
H        1.8958136679   -1.1078963530   -1.2332311492
H        2.2773613006    1.0251404479   -0.0128043551
H        1.4528471010   -3.2001517910    0.0358729618
H        3.7792001650   -0.8234468495    6.8982350883
H        2.2185232707    1.0616580285    2.4720990700
H        1.3981900463   -3.1585249643    2.5201466846
H        3.8896242182   -0.8171914050    4.4123534749
H        1.5778622665   -1.0526418458    8.0394235175
H       -0.3804250781   -1.2668497763    4.2234965018
22   

C        1.8694890798   -1.0925247769   -0.1504214915
C        2.2486666212    0.0630307126    0.5404303400
C        1.4553651174   -2.2245675115    0.5591920847
C        2.8387930537   -0.7581386859    6.3065432126
C        2.2164639975    0.0840298570    1.9398600882
C        1.4237830908   -2.2013161471    1.9587351176
C        2.8980574286   -0.7532402354    4.9084903479
C        1.6299327754   -1.0399289566    6.9522647189
C        0.5484456580   -1.3134686461    4.8079694912
C        1.8127546079   -1.0512419071    2.6610595672
C        1.7496278639   -1.0200745335    4.1461833151
C        0.4805134164   -1.3207080019    6.2060282763
Cl      -1.0228576245   -1.6787252070    7.0102438889
H        1.8934541046   -1.1097358074   -1.2363952099
H        2.5646234565    0.9455619313   -0.0084447354
H        1.1572476922   -3.1220604584    0.0247619991
H        3.7310323151   -0.5472812994    6.8893632588
H        2.5010951958    0.9860796950    2.4734715157
H        1.1015037939   -3.0826558768    2.5055728664
H        3.8385012063   -0.5460172733    4.4061712780
H        1.5785994587   -1.0456914778    8.0369964917
H       -0.3444822726   -1.5316003736    4.2305385262
22   

C        1.8715425081   -1.0859478248   -0.1512515459
C        2.3880293489    0.0066956863    0.5515154474
C        1.3148600176   -2.1618551576    0.5467509629
C        2.8069732529   -0.6236053269    6.3006282495
C        2.3490331427    0.0215750458    1.9508241655
C        1.2761917469   -2.1451812939    1.9461498179
C        2.8568930247   -0.6267729449    4.9022175546
C        1.6425384389   -1.0328786515    6.9583087747
C        0.5855665635   -1.4481494688    4.8249215353
C        1.7967097633   -1.0559966020    2.6642813309
C        1.7438329276   -1.0338390520    4.1472658351
C        0.5277223208   -1.4477021890    6.2233734868
Cl      -0.9228401478   -1.9585171263    7.0420160483
H        1.9013273048   -1.0983358975   -1.2371483752
H        2.8166389058    0.8462345615    0.0116815191
H        0.9133784594   -3.0123967329    0.0032569822
H        3.6731807114   -0.3070614757    6.8748344421
H        2.7411982180    0.8809660203    2.4861584600
H        0.8492442033   -2.9910427082    2.4765700303
H        3.7688369492   -0.3207565510    4.3983249207
H        1.5988187403   -1.0323086069    8.0433893978
H       -0.2880362810   -1.7632579179    4.2634455604
22   

C        1.9239925342   -1.0574189293   -0.1569318863
C        1.4077198147   -2.1643787009    0.5207299584
C        2.3712319006    0.0508059294    0.5661462504
C        0.6237509334   -1.7473946489    6.2200375182
C        1.3402876313   -2.1631384872    1.9190909397
C        2.3038713613    0.0506290978    1.9644159646
C        0.6905682263   -1.7505492517    4.8223177582
C        1.5760798388   -1.0456477085    6.9636231457
C        2.6567437882   -0.3549022883    4.9160458306
C        1.7917720734   -1.0585517889    2.6638525530
C        1.7058053476   -1.0507126246    4.1459949538
C        2.5968404063   -0.3472820153    6.3143272029
Cl       3.7912889411    0.5208874982    7.2390692462
H        1.9761362839   -1.0577086417   -1.2420576387
H        1.0610784990   -3.0289372782   -0.0381414254
H        2.7670701793    0.9163847684    0.0425978901
H       -0.1706360226   -2.2877282205    6.7272246163
H        0.9504789811   -3.0433328635    2.4196609254
H        2.6373971323    0.9341523887    2.4989617125
H       -0.0706763619   -2.2883850393    4.2666365138
H        1.5284374395   -1.0406391299    8.0485328618
H        3.4721080586    0.1759631601    4.4369628987
22   

C        1.9156398164   -1.0542949690   -0.1662576902
C        1.2709764368   -2.0915259198    0.5077697246
C        2.4950717860   -0.0158004237    0.5625103712
C        0.7185244407   -1.8558910468    6.2391497524
C        1.2098223391   -2.0926732371    1.9065387034
C        2.4335971699   -0.0179108028    1.9609020330
C        0.7809404749   -1.8549160517    4.8411146162
C        1.5880795909   -1.0544030353    6.9797540988
C        2.5811411948   -0.2583024645    4.9273790851
C        1.8001875817   -1.0645926496    2.6658985752
C        1.7043515320   -1.0469758786    4.1511526046
C        2.5246969745   -0.2539979497    6.3257400327
Cl       3.6247261206    0.7363880561    7.2451333301
H        1.9627770189   -1.0532280736   -1.2516171401
H        0.8175675222   -2.9025489595   -0.0549557517
H        2.9887174753    0.8006337234    0.0430809075
H       -0.0102990630   -2.4793368955    6.7494623481
H        0.7135415377   -2.9328590991    2.3769510465
H        2.8717527090    0.8285144195    2.4764718054
H        0.0704108768   -2.4803820339    4.3141089745
H        1.5429123587   -1.0524910756    8.0647837358
H        3.3463404201    0.3552198505    4.4682291498
22   

C        1.9066897657   -1.0512421138   -0.1814875750
C        1.1046496780   -1.9741638541    0.4866264891
C        2.6490890070   -0.1307510600    0.5549118097
C        0.8516739331   -1.9949097972    6.2463883526
C        1.0447041234   -1.9772421068    1.8855660477
C        2.5889504895   -0.1340584201    1.9532761360
C        0.9131400034   -1.9899804494    4.8482249835
C        1.5934333270   -1.0745799111    6.9849147047
C        2.4552891034   -0.1477294602    4.9289771396
C        1.7831880809   -1.0595884639    2.6581512216
C        1.7155819753   -1.0676806849    4.1487511403
C        2.3985609980   -0.1469637706    6.3273484595
Cl       3.3294167987    1.0075404882    7.2424803059
H        1.9528253821   -1.0493394100   -1.2668931107
H        0.5232280198   -2.6946606565   -0.0815954973
H        3.2768697273    0.5920529263    0.0415463852
H        0.2237883425   -2.7183099052    6.7590148466
H        0.3992692360   -2.7247019054    2.3263737790
H        3.1928555323    0.6098623233    2.4556234493
H        0.3093224685   -2.7342625279    4.3468612864
H        1.5479746984   -1.0756903619    8.0699381684
H        3.0998821712    0.5991728678    4.4867137935
22   

C        1.9088841652   -1.0314869418   -0.1735915947
C        0.9646779193   -1.8224482624    0.4811013434
C        2.7932655742   -0.2547516893    0.5746722478
C        0.9965261866   -2.1238574707    6.2350906422
C        0.9020282450   -1.8333067174    1.8797617453
C        2.7297215873   -0.2660519533    1.9729328890
C        1.0591569178   -2.1112358131    4.8371189776
C        1.5965071116   -1.1024142394    6.9724764402
C        2.3147993773   -0.0581865985    4.9167784924
C        1.7727584943   -1.0465709340    2.6575503920
C        1.7304121220   -1.0857127287    4.1448657394
C        2.2562174051   -0.0640215605    6.3150450837
Cl       2.9928661646    1.2234309520    7.2293842562
H        1.9577499987   -1.0234129394   -1.2588457963
H        0.2738198271   -2.4296648446   -0.0968289496
H        3.5382796412    0.3546331747    0.0710257864
H        0.4825453239   -2.9319184152    6.7480715021
H        0.1365855006   -2.4511868602    2.3334195324
H        3.4604094160    0.3305895103    2.5061854246
H        0.5938163017   -2.9380281100    4.3139983381
H        1.5498668540   -1.1085170430    8.0574286427
H        2.8100501008    0.7856809898    4.4526746919
22   

C        1.9067476343   -1.0300754741   -0.1593740027
C        0.8725382490   -1.7061728179    0.4920847690
C        2.8818267007   -0.3680915438    0.5902997102
C        1.1245266379   -2.1862751997    6.2345777908
C        0.8132419300   -1.7187954840    1.8907538739
C        2.8211147082   -0.3809087171    1.9888184010
C        1.1819078091   -2.1745217916    4.8364758645
C        1.6113108881   -1.0979221139    6.9631943090
C        2.2089709840    0.0081457847    4.8999764991
C        1.7828766061   -1.0524508686    2.6617666373
C        1.7291517812   -1.0788016672    4.1451978944
C        2.1547374244    0.0039509181    6.2984903005
Cl       2.7538917383    1.3665739764    7.2039514660
H        1.9534620167   -1.0203355876   -1.2447033615
H        0.1111742725   -2.2201888523   -0.0876332779
H        3.6915600405    0.1530971430    0.0875962637
H        0.7046368376   -3.0431310870    6.7539402776
H       -0.0107316415   -2.2374923287    2.3695900914
H        3.6046692993    0.1226046838    2.5456913524
H        0.8135443927   -3.0389459151    4.2936854967
H        1.5685529271   -1.1024611114    8.0483080639
H        2.6144690849    0.8850532774    4.4072659032
22   

C        1.9148362141   -1.0233643640   -0.1566800154
C        0.8042239833   -1.5818693014    0.4829403678
C        2.9589486030   -0.4878090128    0.6033784203
C        1.2366796610   -2.2518681302    6.2268471930
C        0.7396445688   -1.6059214805    1.8811715718
C        2.8925799117   -0.5122140462    2.0016257101
C        1.2895635568   -2.2390873059    4.8286056275
C        1.6090497055   -1.1140092500    6.9497163205
C        2.0867043124    0.0414969133    4.8814631131
C        1.7849248260   -1.0753860717    2.6565474456
C        1.7099504169   -1.0893605757    4.1386937575
C        2.0364604910    0.0366800436    6.2802071329
Cl       2.5013360998    1.4541906043    7.1800896927
H        1.9657853914   -1.0042070721   -1.2416913524
H       -0.0107431895   -1.9942223158   -0.1050619294
H        3.8233585875   -0.0537797902    0.1090025576
H        0.9102299648   -3.1460497452    6.7503922826
H       -0.1334273869   -2.0303686556    2.3675037224
H        3.7142233451   -0.1010354033    2.5803702604
H        1.0120404218   -3.1305844219    4.2741610002
H        1.5698554420   -1.1189197646    8.0349594733
H        2.4111832076    0.9424914484    4.3709224180
22   

C        1.9206999928   -1.0215365162   -0.1551111540
C        0.7461790894   -1.4430902498    0.4766870723
C        3.0222762396   -0.6282563151    0.6119908291
C        1.3713732965   -2.2834174300    6.2362283008
C        0.6758037405   -1.4740365758    1.8745322644
C        2.9496771281   -0.6598430467    2.0098415422
C        1.4162901045   -2.2798422720    4.8376390444
C        1.6161310605   -1.1020049021    6.9447876871
C        1.9521565527    0.0774595282    4.8619042113
C        1.7803512185   -1.0916433592    2.6528279085
C        1.6962753894   -1.0956750306    4.1372228300
C        1.9094782869    0.0825682212    6.2609724123
Cl       2.2213970743    1.5518276226    7.1436088220
H        1.9762070456   -0.9964883998   -1.2397771415
H       -0.1128227680   -1.7429919592   -0.1167173257
H        3.9343702225   -0.2973251248    0.1235730981
H        1.1506315684   -3.2030358461    6.7708374886
H       -0.2409784129   -1.7914936496    2.3625712905
H        3.8074784528   -0.3535351842    2.6014562678
H        1.2378699805   -3.1988156258    4.2868628337
H        1.5831794640   -1.0994123262    8.0302452399
H        2.1799739312    0.9975975518    4.3329681474
22   

C        1.9192679415   -1.0250352527   -0.1524263730
C        0.6987458143   -1.2834862716    0.4806388083
C        3.0676767585   -0.7967651472    0.6134054066
C        1.5297347261   -2.3117807068    6.2465354104
C        0.6289114095   -1.3160455670    1.8785134933
C        2.9950181247   -0.8299389633    2.0112568646
C        1.5732877159   -2.3113380562    4.8478669039
C        1.6226723570   -1.1039192380    6.9472270369
C        1.8045147433    0.0953267098    4.8563782382
C        1.7783251658   -1.0974185842    2.6530004908
C        1.7017855179   -1.1057792903    4.1420287539
C        1.7621382311    0.1042939146    6.2554908849
Cl       1.8846811543    1.6069853125    7.1283617191
H        1.9746032135   -0.9986988520   -1.2370704397
H       -0.1953826075   -1.4561285035   -0.1115540174
H        4.0157258424   -0.5922397035    0.1241747105
H        1.4267052100   -3.2484958384    6.7870784033
H       -0.3197955182   -1.5094283838    2.3706307358
H        3.8862785590   -0.6497375839    2.6053610845
H        1.5090692778   -3.2471148368    4.3001056201
H        1.5900362225   -1.0984911799    8.0326835663
H        1.9153679092    1.0314085114    4.3178791091
22   

C        1.9066783826   -1.0356912361   -0.1520775458
C        0.6687636829   -1.1029637314    0.4965345585
C        3.0863558210   -0.9889251565    0.5989535770
C        1.7064707120   -2.3235023789    6.2452077061
C        0.6122555796   -1.1235409782    1.8952476467
C        3.0269456144   -1.0096383044    1.9976995251
C        1.7616368403   -2.3127821488    4.8469766542
C        1.6219411966   -1.1165076151    6.9487184214
C        1.6479340927    0.1025515411    4.8614924558
C        1.7912002247   -1.0771869095    2.6538733323
C        1.7327031871   -1.0985959668    4.1458371986
C        1.5923062921    0.1013520283    6.2602018729
Cl       1.4870806652    1.6033678303    7.1364862958
H        1.9518030387   -1.0193162876   -1.2373897991
H       -0.2485464954   -1.1387932827   -0.0841815516
H        4.0485167855   -0.9360990433    0.0975348351
H        1.7292481786   -3.2671150780    6.7830871667
H       -0.3479405001   -1.1751176837    2.4002994283
H        3.9421800144   -0.9727445853    2.5814124919
H        1.8273113452   -3.2465225940    4.2958792929
H        1.5788645017   -1.1189558364    8.0338219009
H        1.6251472785    1.0456660989    4.3243209404
22   

C        1.8952459411   -1.0343609207   -0.1523753206
C        0.6718857588   -0.9045599701    0.5139937436
C        3.0785252836   -1.1721054177    0.5815561787
C        1.8839050137   -2.3111930814    6.2347644913
C        0.6335979653   -0.9101546355    1.9134280494
C        3.0377569618   -1.1773383269    1.9811261247
C        1.9557371563   -2.2794311863    4.8376350007
C        1.6203240852   -1.1350752826    6.9461785794
C        1.4988233198    0.0953949159    4.8689439621
C        1.8176335017   -1.0384836922    2.6556548496
C        1.7730643706   -1.0726723899    4.1455982304
C        1.4249510669    0.0724466155    6.2666173496
Cl       1.0895590229    1.5344828129    7.1525981296
H        1.9260043832   -1.0305595829   -1.2383071687
H       -0.2486017817   -0.8017471695   -0.0535580445
H        4.0290059135   -1.2760261929    0.0660552291
H        2.0296005176   -3.2478020259    6.7655875082
H       -0.3165104801   -0.8163225060    2.4313504333
H        3.9559622930   -1.2868139962    2.5508247301
H        2.1520451514   -3.1911141681    4.2807017482
H        1.5627596078   -1.1542747970    8.0304432727
H        1.3444002973    1.0303095288    4.3392565263
22   

C        1.8884054093   -1.0376173022   -0.1529688626
C        0.6997986847   -0.7361871251    0.5200117812
C        3.0439442576   -1.3410513109    0.5746733402
C        2.0399523024   -2.2666778198    6.2409709839
C        0.6688184309   -0.7352966724    1.9196055650
C        3.0108449216   -1.3396792663    1.9744145956
C        2.1151954163   -2.2309898005    4.8441296267
C        1.6241933138   -1.1319003874    6.9462049666
C        1.3575994704    0.0652586344    4.8632905615
C        1.8270618177   -1.0272932529    2.6580241702
C        1.7857186150   -1.0595287318    4.1437948490
C        1.2792649845    0.0377310249    6.2605666708
Cl       0.7536848306    1.4476907561    7.1385362123
H        1.9131813352   -1.0390174371   -1.2390603602
H       -0.2004531737   -0.5061928373   -0.0426959569
H        3.9672173631   -1.5785141586    0.0539792251
H        2.2998629030   -3.1754842915    6.7764607322
H       -0.2585161155   -0.5118934933    2.4390065292
H        3.9097155686   -1.5762127601    2.5361505489
H        2.4256391182   -3.1152293557    4.2950874298
H        1.5631901559   -1.1546507583    8.0302129115
H        1.0886950159    0.9730051059    4.3322489394
22   

C        1.8896793972   -1.0422940891   -0.1568785609
C        0.7456897781   -0.6022741306    0.5155986899
C        2.9934863133   -1.4959988067    0.5714639840
C        2.1733414305   -2.2324644787    6.2549062597
C        0.7071759389   -0.6144591702    1.9149359956
C        2.9531201823   -1.5079611210    1.9708845309
C        2.2346862575   -2.2058628176    4.8571913082
C        1.6386999571   -1.1435482155    6.9508944060
C        1.2273485507   -0.0092911501    4.8568200814
C        1.8123664720   -1.0628142956    2.6584295290
C        1.7677294487   -1.0902956136    4.1416390383
C        1.1625824233   -0.0282544290    6.2548443246
Cl       0.4950831812    1.3279267585    7.1211242283
H        1.9202280232   -1.0328662332   -1.2427840147
H       -0.1153019287   -0.2537662249   -0.0476391379
H        3.8838260880   -1.8377360002    0.0514120918
H        2.5370618777   -3.0998295564    6.7986134483
H       -0.1919341328   -0.2829566771    2.4256448511
H        3.8195633362   -1.8544627408    2.5259743246
H        2.6378746465   -3.0610534694    4.3231116102
H        1.5887038196   -1.1595056182    8.0355878453
H        0.8631031274    0.8642325408    4.3257490828
22   

C        1.8912061777   -1.0397494383   -0.1596781180
C        0.8004884456   -0.4813479709    0.5107398054
C        2.9272520615   -1.6258465724    0.5711050521
C        2.2884846255   -2.1603336247    6.2804746814
C        0.7459671063   -0.5101844849    1.9093087604
C        2.8711055448   -1.6545720215    1.9696354477
C        2.3269167383   -2.1565655716    4.8817038118
C        1.6531977527   -1.1209387074    6.9648801538
C        1.0986368723   -0.0795042969    4.8563782406
C        1.7773603220   -1.1009347000    2.6615884441
C        1.7289932977   -1.1180829508    4.1453811169
C        1.0564476086   -0.0760716481    6.2553311507
Cl       0.2718844648    1.2261947160    7.1063033715
H        1.9342374751   -1.0167328322   -1.2449599934
H       -0.0083642365   -0.0265054112   -0.0539704181
H        3.7805012271   -2.0549426223    0.0536123098
H        2.7496655610   -2.9731100951    6.8345091361
H       -0.1216787902   -0.0839357212    2.4023366466
H        3.7005501830   -2.0959766578    2.5122749392
H        2.8109283939   -2.9834443964    4.3721736591
H        1.6213023623   -1.1193398434    8.0503762901
H        0.6480285177    0.7548892754    4.3302408294
22   

C        1.8980562660   -1.0331267865   -0.1731792152
C        0.8839390376   -0.3551790506    0.5031449853
C        2.8495436875   -1.7490169394    0.5530048793
C        2.4093027748   -2.0737046584    6.2947489106
C        0.8195491796   -0.3959394278    1.9010808049
C        2.7840376817   -1.7892744147    1.9507154861
C        2.4309130914   -2.0844159633    4.8956159343
C        1.6731214961   -1.1039917749    6.9762151659
C        0.9868919277   -0.1583879297    4.8624002366
C        1.7593974203   -1.1220681199    2.6572113154
C        1.7116182910   -1.1353078037    4.1449256150
C        0.9605243147   -0.1411371047    6.2616279731
Cl       0.0522224661    1.0823465308    7.1068199917
H        1.9483955187   -1.0008364205   -1.2579140427
H        0.1398803345    0.2038819202   -0.0571119211
H        3.6478588697   -2.2703395068    0.0325140270
H        2.9640298501   -2.8234062513    6.8519825769
H       -0.0010184915    0.1319919812    2.3722054701
H        3.5657117349   -2.3344429775    2.4659458845
H        3.0013192852   -2.8699845716    4.4143484132
H        1.6540043700   -1.0917497361    8.0619489843
H        0.4427101460    0.6293877029    4.3567423091
22   

C        1.8784171840   -1.0458569645   -0.1862066311
C        1.0060271841   -0.2077082480    0.5047600923
C        2.7142781366   -1.9009918015    0.5282931365
C        2.5507678358   -1.9574362109    6.3014593359
C        0.9693463852   -0.2243208145    1.9043124404
C        2.6769274353   -1.9169263799    1.9274394232
C        2.5905390630   -1.9439128906    4.9026564373
C        1.6757431055   -1.1164500752    6.9865284096
C        0.8840314093   -0.2522162898    4.8756588386
C        1.8012636599   -1.0769674580    2.6562394865
C        1.7601218999   -1.0926428854    4.1478339143
C        0.8386673873   -0.2601985336    6.2744908942
Cl      -0.2587672346    0.7949710722    7.1225291432
H        1.9065146302   -1.0326063422   -1.2721484269
H        0.3512007868    0.4618654327   -0.0456729951
H        3.3973493845   -2.5576184905   -0.0030176337
H        3.2037849964   -2.6253843321    6.8561989555
H        0.2653820449    0.4556820531    2.3649123723
H        3.3550120770   -2.6070209040    2.4112649924
H        3.2944073298   -2.6238054780    4.4415912732
H        1.6420115739   -1.1241000426    8.0719522416
H        0.2064463559    0.4373913795    4.3918091146
