22   

C        1.8654145005   -1.0660889667   -0.1744318404
C        1.1522268546   -0.0843876409    0.5133809822
C        2.5628522304   -2.0384046948    0.5420545199
C        2.6657757087   -1.8148234707    6.3045494091
C        1.1394482465   -0.0730449816    1.9132880421
C        2.5495678005   -2.0259422723    1.9417599095
C        2.7295918291   -1.7829406733    4.9070282501
C        1.6636551711   -1.1135362604    6.9758558930
C        0.7918048449   -0.3553008185    4.8549482712
C        1.8458659547   -1.0347861920    2.6605102600
C        1.8023724922   -1.0437055815    4.1483916348
C        0.7214037164   -0.3824894886    6.2524946687
Cl      -0.5422086986    0.4823615237    7.0841138116
H        1.8746729421   -1.0752712399   -1.2607358132
H        0.6073072147    0.6756752753   -0.0392738035
H        3.1114758878   -2.8117623844    0.0120308775
H        3.3994024681   -2.3839477543    6.8686179579
H        0.5858654053    0.7243760387    2.3946060922
H        3.0826884612   -2.8219914855    2.4475002495
H        3.5384774198   -2.3277996074    4.4348710152
H        1.6101836123   -1.1359648509    8.0602778698
H        0.0182904378    0.2009935239    4.3405299754
22   

C        1.8817499803   -1.0657781689   -0.1571827049
C        1.2826712914   -0.0051047239    0.5261875430
C        2.4482345217   -2.1209279605    0.5616140732
C        2.7324625879   -1.6791319396    6.3070251565
C        1.2513589074    0.0003645067    1.9257567691
C        2.4167719949   -2.1137930805    1.9611915681
C        2.7884021354   -1.6678720082    4.9088814893
C        1.6576278485   -1.0792118766    6.9682458326
C        0.6999760291   -0.4606609272    4.8379388444
C        1.8215456537   -1.0507702391    2.6664203553
C        1.7750222552   -1.0547873246    4.1503950299
C        0.6368224282   -0.4682758478    6.2360808717
Cl      -0.7093885562    0.2722283365    7.0576378877
H        1.9054191641   -1.0707718333   -1.2432910197
H        0.8428518473    0.8184834152   -0.0290446636
H        2.9088425911   -2.9510333366    0.0336699117
H        3.5263902745   -2.1513810542    6.8787829535
H        0.7943947224    0.8456770996    2.4299465194
H        2.8442728923   -2.9573846287    2.4930434922
H        3.6417567108   -2.1249653122    4.4185079875
H        1.6096841898   -1.0859490890    8.0531315005
H       -0.1165357739   -0.0001394319    4.2926730813
22   

C        1.8897205361   -1.0596632739   -0.1503389828
C        1.4065295384    0.0545591605    0.5422181241
C        2.3238518238   -2.1843901498    0.5576544191
C        2.7969500108   -1.5620472558    6.2942062339
C        1.3560480750    0.0424516740    1.9411845361
C        2.2730966486   -2.1946858417    1.9567399366
C        2.8332146591   -1.5736498270    4.8954165028
C        1.6720167295   -1.0636532937    6.9590704407
C        0.6272971577   -0.5893239882    4.8319910451
C        1.7841173881   -1.0842979898    2.6639067469
C        1.7452959146   -1.0927938592    4.1473274417
C        0.5833067086   -0.5743054672    6.2308789005
Cl      -0.8177394627    0.0481647707    7.0584147620
H        1.9289598764   -1.0509006832   -1.2359700086
H        1.0731145194    0.9317405270   -0.0049439057
H        2.6990974205   -3.0516592252    0.0219493639
H        3.6434982311   -1.9361658727    6.8630873376
H        0.9914945533    0.9190068736    2.4683163150
H        2.6050381169   -3.0769824840    2.4955170747
H        3.7160013143   -1.9487906908    4.3863892088
H        1.6391618991   -1.0522491819    8.0444766764
H       -0.2259854734   -0.2151731872    4.2755081552
22   

C        1.8855166147   -1.0596023899   -0.1460417695
C        1.5405719689    0.1011464335    0.5541190586
C        2.1698235935   -2.2372071729    0.5533978362
C        2.8303650508   -1.4267491183    6.2874853137
C        1.4770951358    0.0822081567    1.9524893762
C        2.1058387159   -2.2540338075    1.9519652885
C        2.8579240961   -1.4524009743    4.8886683277
C        1.6604418379   -1.0480187062    6.9551465910
C        0.5543650661   -0.7193772536    4.8311527466
C        1.7495135613   -1.0986058406    2.6620860418
C        1.7150827967   -1.1100584424    4.1483505031
C        0.5185943480   -0.6907297227    6.2301414946
Cl      -0.9352221981   -0.2112142853    7.0617294020
H        1.9354736717   -1.0456392535   -1.2311774571
H        1.3252877170    1.0185049932    0.0136599652
H        2.4409897901   -3.1388848411    0.0117412089
H        3.7173676012   -1.6963662726    6.8538456116
H        1.2199611714    0.9881235925    2.4936314921
H        2.3276673406   -3.1699187958    2.4917898034
H        3.7693699226   -1.7340220361    4.3693824074
H        1.6340815240   -1.0255562558    8.0405557329
H       -0.3318884456   -0.4409186140    4.2696067229
22   

C        1.8867749747   -1.0679387010   -0.1450567122
C        1.7113664798    0.1298656279    0.5563513714
C        2.0049194274   -2.2746440551    0.5532631774
C        2.8667302756   -1.2676090946    6.2912661629
C        1.6518194828    0.1191497109    1.9550143484
C        1.9449591807   -2.2828225311    1.9521275125
C        2.9005042663   -1.2904607791    4.8925173744
C        1.6558375800   -1.0417377763    6.9557740259
C        0.5214062691   -0.8600977560    4.8288795792
C        1.7601612421   -1.0886231026    2.6611787249
C        1.7249479228   -1.0963011851    4.1517417739
C        0.4787518006   -0.8353054648    6.2278145514
Cl      -1.0266968044   -0.5468251904    7.0557075234
H        1.9335355496   -1.0606860708   -1.2303998595
H        1.6236377701    1.0685309585    0.0167274619
H        2.1441770581   -3.2053422800    0.0107118913
H        3.7794911103   -1.4220111577    6.8598276753
H        1.5225414041    1.0494939481    2.5004496044
H        2.0392165983   -3.2192083366    2.4942908960
H        3.8393014932   -1.4573402028    4.3722401214
H        1.6241535423   -1.0222410372    8.0410977777
H       -0.3898109919   -0.6969840206    4.2618173577
22   

C        1.8770478782   -1.0790291005   -0.1465643481
C        1.9016239189    0.1358288147    0.5471119660
C        1.8125647599   -2.2849798757    0.5601396540
C        2.8893632135   -1.0907735730    6.3028693055
C        1.8618624204    0.1430628137    1.9465281020
C        1.7729046565   -2.2749138897    1.9597074171
C        2.9384748042   -1.0969406571    4.9043882578
C        1.6527462385   -1.0437506195    6.9567087072
C        0.5233633299   -1.0093516855    4.8197192317
C        1.7974820640   -1.0625048667    2.6608618016
C        1.7546367197   -1.0562277842    4.1535174278
C        0.4647954324   -1.0028532369    6.2182965131
Cl      -1.0740684972   -0.9443517152    7.0328368198
H        1.9075195215   -1.0859042257   -1.2324888030
H        1.9510866921    1.0734274854    0.0008188307
H        1.7928036015   -3.2292925370    0.0236256862
H        3.8095818332   -1.1224349200    6.8794395502
H        1.8802448241    1.0852815404    2.4865289530
H        1.7222298693   -3.2105621933    2.5090050065
H        3.8954001581   -1.1333551237    4.3916877997
H        1.6087908119   -1.0387553727    8.0417682443
H       -0.3963963284   -0.9776986120    4.2438936613
22   

C        1.8731306865   -1.0909375251   -0.1472264955
C        2.0889023627    0.1088121891    0.5392729798
C        1.6243208475   -2.2681081384    0.5667831658
C        2.8687709357   -0.9165679224    6.3128432002
C        2.0583118205    0.1291716269    1.9387864214
C        1.5943133353   -2.2449168487    1.9664018080
C        2.9311753123   -0.9102793640    4.9149019638
C        1.6320427109   -1.0465395435    6.9548325524
C        0.5293714872   -1.1658416610    4.8070943880
C        1.8187629009   -1.0492129978    2.6618444988
C        1.7598458739   -1.0256666352    4.1515139173
C        0.4575634938   -1.1734169254    6.2050127462
Cl      -1.0810103119   -1.3420722070    7.0046059307
H        1.8958074367   -1.1078950984   -1.2332313283
H        2.2773600162    1.0251407281   -0.0128043787
H        1.4528378707   -3.2001499480    0.0358727027
H        3.7792002149   -0.8234468166    6.8982350663
H        2.2185251914    1.0616576660    2.4720991259
H        1.3981838313   -3.1585237207    2.5201464663
H        3.8896242051   -0.8171913297    4.4123534649
H        1.5778623531   -1.0526419500    8.0394235458
H       -0.3804250594   -1.2668500575    4.2234965812
22   

C        1.8694817771   -1.0925220567   -0.1504217992
C        2.2486636566    0.0630318593    0.5404302534
C        1.4553555856   -2.2245640317    0.5591916520
C        2.8387931034   -0.7581385554    6.3065432177
C        2.2164639975    0.0840298570    1.9398600882
C        1.4237763382   -2.2013136970    1.9587347612
C        2.8980574286   -0.7532402354    4.9084903479
C        1.6299328422   -1.0399287089    6.9522647884
C        0.5484456363   -1.3134684424    4.8079696122
C        1.8127546079   -1.0512419071    2.6610595672
C        1.7496278639   -1.0200745335    4.1461833151
C        0.4805134471   -1.3207077107    6.2060284000
Cl      -1.0228575979   -1.6787247266    7.0102440879
H        1.8934447383   -1.1097323033   -1.2363955752
H        2.5646214645    0.9455628000   -0.0084447089
H        1.1572341955   -3.1220555709    0.0247614142
H        3.7310323921   -0.5472811533    6.8893632218
H        2.5010980317    0.9860787319    2.4734716282
H        1.1014948124   -3.0826527428    2.5055722953
H        3.8385012220   -0.5460173581    4.4061712751
H        1.5785995626   -1.0456911512    8.0369965637
H       -0.3444824058   -1.5316000539    4.2305387805
22   

C        1.8715355621   -1.0859441391   -0.1512518988
C        2.3880265246    0.0066972340    0.5515153526
C        1.3148509505   -2.1618504528    0.5467504469
C        2.8069732616   -0.6236050163    6.3006282473
C        2.3490331427    0.0215750458    1.9508241655
C        1.2761853359   -2.1451780135    1.9461493897
C        2.8568930247   -0.6267729449    4.9022175546
C        1.6425383525   -1.0328778666    6.9583088689
C        0.5855663603   -1.4481487869    4.8249217162
C        1.7967097633   -1.0559966020    2.6642813309
C        1.7438329276   -1.0338390520    4.1472658351
C        0.5277221118   -1.4477011779    6.2233736663
Cl      -0.9228405684   -1.9585153755    7.0420163191
H        1.9013184194   -1.0983311472   -1.2371487926
H        2.8166370044    0.8462357197    0.0116815522
H        0.9133656034   -3.0123901145    0.0032562691
H        3.6731808081   -0.3070612800    6.8748343665
H        2.7412009040    0.8809647274    2.4861585600
H        0.8492356744   -2.9910385599    2.4765692698
H        3.7688370458   -0.3207568586    4.3983249136
H        1.5988186499   -1.0323075610    8.0433894916
H       -0.2880367578   -1.7632569336    4.2634460087
22   

C        1.9239982609   -1.0574217067   -0.1569317324
C        1.4077221238   -2.1643798748    0.5207300766
C        2.3712394220    0.0508024233    0.5661463773
C        0.6237509291   -1.7473949249    6.2200375135
C        1.3402876313   -2.1631384872    1.9190909397
C        2.3038767287    0.0506266944    1.9644159917
C        0.6905682263   -1.7505492517    4.8223177582
C        1.5760799339   -1.0456483079    6.9636232785
C        2.6567440286   -0.3549027731    4.9160460803
C        1.7917720734   -1.0585517889    2.6638525530
C        1.7058053476   -1.0507126246    4.1459949538
C        2.5968406285   -0.3472827305    6.3143274560
Cl       3.7912893408    0.5208863658    7.2390696651
H        1.9761435860   -1.0577122357   -1.2420574092
H        1.0610800113   -3.0289381808   -0.0381412325
H        2.7670808322    0.9163798510    0.0425980564
H       -0.1706361309   -2.2877284558    6.7272244914
H        0.9504767587   -3.0433319504    2.4196607817
H        2.6374043308    0.9341494478    2.4989614569
H       -0.0706765218   -2.2883848093    4.2666365212
H        1.5284375368   -1.0406399176    8.0485329960
H        3.4721086052    0.1759625279    4.4369635406
22   

C        1.9156432700   -1.0542971917   -0.1662576179
C        1.2709778060   -2.0915268350    0.5077697853
C        2.4950763968   -0.0158032867    0.5625104142
C        0.7185243531   -1.8558911308    6.2391497431
C        1.2098223391   -2.0926732371    1.9065387034
C        2.4336005120   -0.0179127947    1.9609020230
C        0.7809404749   -1.8549160517    4.8411146162
C        1.5880794189   -1.0544031541    6.9797541885
C        2.5811411479   -0.2583025210    4.9273792640
C        1.8001875817   -1.0645926496    2.6658985752
C        1.7043515320   -1.0469758786    4.1511526046
C        2.5246968099   -0.2539980399    6.3257402082
Cl       3.6247258111    0.7363880217    7.2451336184
H        1.9627814028   -1.0532309268   -1.2516170291
H        0.8175683535   -2.9025496062   -0.0549556476
H        2.9887240458    0.8006296796    0.0430809559
H       -0.0102991702   -2.4793370239    6.7494622529
H        0.7135401125   -2.9328583083    2.3769509314
H        2.8717573805    0.8285118661    2.4764715549
H        0.0704108532   -2.4803820278    4.3141090157
H        1.5429121107   -1.0524912418    8.0647838217
H        3.3463404289    0.3552199200    4.4682296377
22   

C        1.9066897407   -1.0512420755   -0.1814875739
C        1.1046496695   -1.9741638337    0.4866264874
C        2.6490889790   -0.1307510259    0.5549118134
C        0.8516739384   -1.9949098128    6.2463883547
C        1.0447041234   -1.9772421068    1.8855660477
C        2.5889504732   -0.1340584033    1.9532761389
C        0.9131400034   -1.9899804494    4.8482249835
C        1.5934333456   -1.0745799423    6.9849147121
C        2.4552891218   -0.1477294795    4.9289771449
C        1.7831880809   -1.0595884639    2.6581512216
C        1.7155819753   -1.0676806849    4.1487511403
C        2.3985610242   -0.1469638050    6.3273484694
Cl       3.3294168447    1.0075404282    7.2424803269
H        1.9528253520   -1.0493393523   -1.2668931099
H        0.5232280138   -2.6946606302   -0.0815955061
H        3.2768696885    0.5920529697    0.0415463896
H        0.2237883431   -2.7183099196    6.7590148484
H        0.3992692521   -2.7247019171    2.3263737826
H        3.1928555046    0.6098623489    2.4556234505
H        0.3093224558   -2.7342625176    4.3468612864
H        1.5479747244   -1.0756904011    8.0699381764
H        3.0998822010    0.5991728373    4.4867137993
22   

C        1.9088813340   -1.0314838457   -0.1735917722
C        0.9646767626   -1.8224470327    0.4811013020
C        2.7932619210   -0.2547475804    0.5746719696
C        0.9965260453   -2.1238575025    6.2350906359
C        0.9020282450   -1.8333067174    1.8797617453
C        2.7297190319   -0.2660489780    1.9729326518
C        1.0591569178   -2.1112358131    4.8371189776
C        1.5965068199   -1.1024142634    6.9724765184
C        2.3147991681   -0.0581865454    4.9167786474
C        1.7727584943   -1.0465709340    2.6575503920
C        1.7304121220   -1.0857127287    4.1448657394
C        2.2562170602   -0.0640215293    6.3150452322
Cl       2.9928655918    1.2234310611    7.2293844838
H        1.9577463517   -1.0234089898   -1.2588460053
H        0.2738190307   -2.4296640959   -0.0968289149
H        3.5382744810    0.3546390257    0.0710253873
H        0.4825451837   -2.9319184889    6.7480714280
H        0.1365865589   -2.4511881683    2.3334195118
H        3.4604060941    0.3305936838    2.5061848663
H        0.5938163700   -2.9380281697    4.3139983877
H        1.5498664786   -1.1085170975    8.0574287166
H        2.8100499276    0.7856811567    4.4526751366
22   

C        1.9067440321   -1.0300704851   -0.1593742344
C        0.8725367594   -1.7061708339    0.4920847264
C        2.8818220618   -0.3680849058    0.5902993383
C        1.1245264307   -2.1862753023    6.2345777759
C        0.8132419300   -1.7187954840    1.8907538739
C        2.8211114637   -0.3809039239    1.9888180759
C        1.1819078091   -2.1745217916    4.8364758645
C        1.6113103480   -1.0979221857    6.9631944237
C        2.2089704262    0.0081459476    4.8999767333
C        1.7828766061   -1.0524508686    2.6617666373
C        1.7291517812   -1.0788016672    4.1451978944
C        2.1547366543    0.0039510064    6.2984905337
Cl       2.7538904218    1.3665742092    7.2039518561
H        1.9534573723   -1.0203292372   -1.2447036262
H        0.1111731892   -2.2201876002   -0.0876332056
H        3.6915535108    0.1531065652    0.0875957302
H        0.7046367203   -3.0431313096    6.7539401415
H       -0.0107303799   -2.2374943233    2.3695900825
H        3.6046652201    0.1226111762    2.5456906388
H        0.8135446180   -3.0389460236    4.2936855276
H        1.5685522605   -1.1024612590    8.0483081727
H        2.6144682799    0.8850537460    4.4072665156
22   

C        1.9148325699   -1.0233576954   -0.1566801918
C        0.8042224535   -1.5818666165    0.4829403448
C        2.9589439206   -0.4878002156    0.6033781384
C        1.2366794200   -2.2518681785    6.2268471819
C        0.7396445688   -1.6059214805    1.8811715718
C        2.8925766247   -0.5122077555    2.0016254492
C        1.2895635568   -2.2390873059    4.8286056275
C        1.6090490797   -1.1140092476    6.9497163992
C        2.0867037083    0.0414970658    4.8814632853
C        1.7849248260   -1.0753860717    2.6565474456
C        1.7099504169   -1.0893605757    4.1386937575
C        2.0364596492    0.0366801592    6.2802072955
Cl       2.5013346737    1.4541908581    7.1800899442
H        1.9657807028   -1.0041985651   -1.2416915451
H       -0.0107443385   -1.9942205494   -0.1050618385
H        3.8233520001   -0.0537673075    0.1090021783
H        0.9102298397   -3.1460498850    6.7503921906
H       -0.1334261003   -2.0303712576    2.3675037527
H        3.7142191718   -0.1010269706    2.5803697280
H        1.0120406958   -3.1305845062    4.2741610029
H        1.5698546393   -1.1189197925    8.0349595457
H        2.4111822908    0.9424918549    4.3709228536
22   

C        1.9206972295   -1.0215293294   -0.1551112288
C        0.7461779229   -1.4430873366    0.4766870772
C        3.0222726925   -0.6282468848    0.6119907019
C        1.3713732507   -2.2834175073    6.2362282961
C        0.6758037405   -1.4740365758    1.8745322644
C        2.9496746317   -0.6598363585    2.0098414053
C        1.4162901045   -2.2798422720    4.8376390444
C        1.6161309259   -1.1020050111    6.9447877457
C        1.9521562863    0.0774595525    4.8619043304
C        1.7803512185   -1.0916433592    2.6528279085
C        1.6962753894   -1.0956750306    4.1372228300
C        1.9094780141    0.0825681713    6.2609725306
Cl       2.2213965841    1.5518275786    7.1436090162
H        1.9762034866   -0.9964792012   -1.2397772100
H       -0.1128236572   -1.7429899891   -0.1167172477
H        3.9343652220   -0.2973117343    0.1235729420
H        1.1506315665   -3.2030359648    6.7708374328
H       -0.2409774405   -1.7914964248    2.3625713087
H        3.8074752542   -0.3535262778    2.6014560027
H        1.2378700704   -3.1988156376    4.2868628266
H        1.5831793263   -1.0994124868    8.0302452967
H        2.1799734279    0.9975977064    4.3329683943
22   

C        1.9192667996   -1.0250301320   -0.1524263487
C        0.6987453300   -1.2834842043    0.4806388352
C        3.0676752969   -0.7967584356    0.6134054263
C        1.5297347813   -2.3117807296    6.2465354145
C        0.6289114095   -1.3160455670    1.8785134933
C        2.9950170931   -0.8299342075    2.0112568611
C        1.5732877159   -2.3113380562    4.8478669039
C        1.6226724248   -1.1039192745    6.9472270572
C        1.8045148647    0.0953266909    4.8563782785
C        1.7783251658   -1.0974185842    2.6530004908
C        1.7017855179   -1.1057792903    4.1420287539
C        1.7621383544    0.1042938802    6.2554909264
Cl       1.8846813707    1.6069852545    7.1283617938
H        1.9746017348   -0.9986923057   -1.2370703971
H       -0.1953829781   -1.4561271343   -0.1115539582
H        4.0157237891   -0.5922302030    0.1241747512
H        1.4267052996   -3.2484958667    6.7870784053
H       -0.3197951167   -1.5094303651    2.3706307304
H        3.8862772246   -0.6497312796    2.6053610651
H        1.5090692694   -3.2471148372    4.3001056229
H        1.5900362769   -1.0984912324    8.0326835862
H        1.9153680673    1.0314085037    4.3178791753
22   

C        1.9066783370   -1.0356911985   -0.1520775633
C        0.6687636537   -1.1029637120    0.4965345616
C        3.0863557845   -0.9889251126    0.5989535477
C        1.7064707062   -2.3235023829    6.2452077052
C        0.6122555796   -1.1235409782    1.8952476467
C        3.0269456043   -1.0096382790    1.9976995013
C        1.7616368403   -2.3127821488    4.8469766542
C        1.6219411973   -1.1165076179    6.9487184210
C        1.6479341180    0.1025515413    4.8614924586
C        1.7912002247   -1.0771869095    2.6538733323
C        1.7327031871   -1.0985959668    4.1458371986
C        1.5923063167    0.1013520287    6.2602018741
Cl       1.4870807192    1.6033678368    7.1364862946
H        1.9518029704   -1.0193162299   -1.2373898174
H       -0.2485465387   -1.1387932487   -0.0841815267
H        4.0485167367   -0.9360989689    0.0975347860
H        1.7292481699   -3.2671150853    6.7830871620
H       -0.3479404926   -1.1751177153    2.4002994395
H        3.9421800163   -0.9727445451    2.5814124506
H        1.8273113518   -3.2465225935    4.2958792927
H        1.5788644938   -1.1189558377    8.0338218993
H        1.6251473330    1.0456661020    4.3243209455
22   

C        1.8952452675   -1.0343661895   -0.1523754038
C        0.6718854639   -0.9045621046    0.5139937281
C        3.0785244374   -1.1721123162    0.5815560582
C        1.8839049076   -2.3111930950    6.2347644894
C        0.6335979653   -0.9101546355    1.9134280494
C        3.0377563667   -1.1773432111    1.9811260202
C        1.9557371563   -2.2794311863    4.8376350007
C        1.6203238356   -1.1350753198    6.9461785667
C        1.4988231213    0.0953948808    4.8689439444
C        1.8176335017   -1.0384836922    2.6556548496
C        1.7730643706   -1.0726723899    4.1455982304
C        1.4249507681    0.0724465670    6.2666173265
Cl       1.0895585757    1.5344827418    7.1525980867
H        1.9260035097   -1.0305663223   -1.2383072623
H       -0.2486020280   -0.8017485982   -0.0535580127
H        4.0290047299   -1.2760359698    0.0660550680
H        2.0296004276   -3.2478020330    6.7655875160
H       -0.3165102607   -0.8163204693    2.4313504665
H        3.9559615419   -1.2868204819    2.5508245705
H        2.1520452184   -3.1911141671    4.2807017701
H        1.5627592878   -1.1542748423    8.0304432568
H        1.3444000577    1.0303094879    4.3392565067
22   

C        1.8884033185   -1.0376247989   -0.1529689919
C        0.6997978039   -0.7361901569    0.5200117619
C        3.0439415713   -1.3410611472    0.5746731476
C        2.0399522144   -2.2666778408    6.2409709812
C        0.6688184309   -0.7352966724    1.9196055650
C        3.0108430217   -1.3396862339    1.9744144112
C        2.1151954163   -2.2309898005    4.8441296267
C        1.6241931352   -1.1319004381    6.9462049583
C        1.3575993823    0.0652586033    4.8632905612
C        1.8270618177   -1.0272932529    2.6580241702
C        1.7857186150   -1.0595287318    4.1437948490
C        1.2792647961    0.0377309675    6.2605666634
Cl       0.7536844616    1.4476906452    7.1385361855
H        1.9131786529   -1.0390270101   -1.2390604989
H       -0.2004538438   -0.5061948606   -0.0426959015
H        3.9672135968   -1.5785280955    0.0539789868
H        2.2998627868   -3.1754843138    6.7764607387
H       -0.2585153924   -0.5118906084    2.4390065763
H        3.9097131494   -1.5762220134    2.5361502325
H        2.4256391079   -3.1152293967    4.2950874936
H        1.5631898923   -1.1546508312    8.0302128957
H        1.0886949243    0.9730050777    4.3322489546
22   

C        1.8896764171   -1.0423009714   -0.1568788327
C        0.7456885279   -0.6022768981    0.5155986288
C        2.9934824888   -1.4960078943    0.5714635731
C        2.1733415458   -2.2324644279    6.2549062674
C        0.7071759389   -0.6144591702    1.9149359956
C        2.9531175029   -1.5079676091    1.9708841712
C        2.2346862575   -2.2058628176    4.8571913082
C        1.6387002486   -1.1435481011    6.9508944342
C        1.2273488374   -0.0092910238    4.8568201213
C        1.8123664720   -1.0628142956    2.6584295290
C        1.7677294487   -1.0902956136    4.1416390383
C        1.1625827996   -0.0282542746    6.2548443697
Cl       0.4950837620    1.3279269928    7.1211243050
H        1.9202241949   -1.0328750024   -1.2427843275
H       -0.1153028675   -0.2537680359   -0.0476390816
H        3.8838207228   -1.8377488802    0.0514115333
H        2.5370619045   -3.0998295477    6.7986134523
H       -0.1919331021   -0.2829539976    2.4256449183
H        3.8195599931   -1.8544713732    2.5259736491
H        2.6378744212   -3.0610536741    4.3231117835
H        1.5887041895   -1.1595054808    8.0355878771
H        0.8631035178    0.8642327376    4.3257491729
22   

C        1.8912029590   -1.0397548434   -0.1596784986
C        0.8004870909   -0.4813501379    0.5107397120
C        2.9272479866   -1.6258536826    0.5711044799
C        2.2884848337   -2.1603334630    6.2804746912
C        0.7459671063   -0.5101844849    1.9093087604
C        2.8711027466   -1.6545771000    1.9696349702
C        2.3269167383   -2.1565655716    4.8817038118
C        1.6531982203   -1.1209384043    6.9648801765
C        1.0986372420   -0.0795040779    4.8563782691
C        1.7773603220   -1.1009347000    2.6615884441
C        1.7289932977   -1.1180829508    4.1453811169
C        1.0564481381   -0.0760713203    6.2553311804
Cl       0.2718852525    1.2261951965    7.1063034086
H        1.9342332961   -1.0167397486   -1.2449604445
H       -0.0083652721   -0.0265068255   -0.0539703604
H        3.7804955103   -2.0549527101    0.0536114976
H        2.7496657151   -2.9731099563    6.8345091545
H       -0.1216776932   -0.0839335902    2.4023367178
H        3.7005467595   -2.0959834652    2.5122739819
H        2.8109281405   -2.9834447030    4.3721739528
H        1.6213029789   -1.1193394520    8.0503763169
H        0.6480290091    0.7548895865    4.3302409111
22   

C        1.8980538281   -1.0331299845   -0.1731794974
C        0.8839380366   -0.3551803283    0.5031449046
C        2.8495405168   -1.7490212227    0.5530044592
C        2.4093029034   -2.0737045620    6.2947489114
C        0.8195491796   -0.3959394278    1.9010808049
C        2.7840354516   -1.7892775368    1.9507151390
C        2.4309130914   -2.0844159633    4.8956159343
C        1.6731217789   -1.1039915978    6.9762151924
C        0.9868921732   -0.1583877628    4.8624002794
C        1.7593974203   -1.1220681199    2.6572113154
C        1.7116182910   -1.1353078037    4.1449256150
C        0.9605246543   -0.1411368878    6.2616280173
Cl       0.0522229754    1.0823468505    7.1068200631
H        1.9483923959   -1.0008404777   -1.2579143820
H        0.1398796194    0.2038811080   -0.0571119115
H        3.6478544028   -2.2703456005    0.0325134353
H        2.9640299808   -2.8234061597    6.8519825682
H       -0.0010176006    0.1319933124    2.3722055120
H        3.5657088694   -2.3344473409    2.4659451535
H        3.0013192650   -2.8699847000    4.4143486407
H        1.6540047444   -1.0917495240    8.0619490131
H        0.4427104487    0.6293879467    4.3567424253
22   

C        1.8784171819   -1.0458569484   -0.1862066369
C        1.0060271875   -0.2077082337    0.5047600949
C        2.7142781281   -1.9009917980    0.5282931252
C        2.5507678469   -1.9574361745    6.3014593350
C        0.9693463852   -0.2243208145    1.9043124404
C        2.6769274294   -1.9169263842    1.9274394173
C        2.5905390630   -1.9439128906    4.9026564373
C        1.6757431155   -1.1164500371    6.9865284079
C        0.8840313857   -0.2522163069    4.8756588330
C        1.8012636599   -1.0769674580    2.6562394865
C        1.7601218999   -1.0926428854    4.1478339143
C        0.8386673716   -0.2601985233    6.2744908896
Cl      -0.2587672511    0.7949710901    7.1225291346
H        1.9065146200   -1.0326063027   -1.2721484348
H        0.3512007920    0.4618654616   -0.0456729737
H        3.3973493671   -2.5576184833   -0.0030176597
H        3.2037850279   -2.6253842711    6.8561989541
H        0.2653820556    0.4556820539    2.3649123857
H        3.3550120631   -2.6070209195    2.4112649820
H        3.2944073363   -2.6238054682    4.4415912682
H        1.6420116135   -1.1240999881    8.0719522416
H        0.2064462997    0.4373913210    4.3918090978
