22   

C        1.8654116543   -1.0660912098   -0.1744317573
C        1.1522257270   -0.0843885528    0.5133809815
C        2.5628484068   -2.0384076094    0.5420546789
C        2.6657749838   -1.8148243568    6.3045493525
C        1.1394482465   -0.0730449816    1.9132880421
C        2.5495650040   -2.0259443199    1.9417600725
C        2.7295918291   -1.7829406733    4.9070282501
C        1.6636533765   -1.1135384949    6.9758556786
C        0.7918032558   -0.3553029444    4.8549480003
C        1.8458659547   -1.0347861920    2.6605102600
C        1.8023724922   -1.0437055815    4.1483916348
C        0.7214014244   -0.3824924343    6.2524943493
Cl      -0.5422124124    0.4823566915    7.0841132915
H        1.8746693466   -1.0752741109   -1.2607357311
H        0.6073065501    0.6756746498   -0.0392738645
H        3.1114704403   -2.8117664964    0.0120311038
H        3.3994019778   -2.3839482725    6.8686179681
H        0.5858666574    0.7243768071    2.3946063096
H        3.0826845127   -2.8219941134    2.4475007551
H        3.5384780303   -2.3277985793    4.4348708187
H        1.6101812916   -1.1359676941    8.0602776174
H        0.0182884430    0.2009905547    4.3405293663
22   

C        1.8817729238   -1.0657642494   -0.1571828140
C        1.2826804560   -0.0050988940    0.5261877337
C        2.4482648902   -2.1209101865    0.5616136105
C        2.7324611689   -1.6791339375    6.3070251076
C        1.2513589074    0.0003645067    1.9257567691
C        2.4167938223   -2.1137807534    1.9611909398
C        2.7884021354   -1.6678720082    4.9088814893
C        1.6576247068   -1.0792168292    6.9682456387
C        0.6999733919   -0.4606654161    4.8379386281
C        1.8215456537   -1.0507702391    2.6664203553
C        1.7750222552   -1.0547873246    4.1503950299
C        0.6368185557   -0.4682822131    6.2360805735
Cl      -0.7093948437    0.2722178633    7.0576373372
H        1.9054483556   -1.0707539273   -1.2432910108
H        0.8428576735    0.8184877341   -0.0290440670
H        2.9088856148   -2.9510084156    0.0336692510
H        3.5263892116   -2.1513822921    6.8787830407
H        0.7943856296    0.8456721971    2.4299464505
H        2.8443022938   -2.9573693785    2.4930412884
H        3.6417586060   -2.1249630857    4.4185093652
H        1.6096801663   -1.0859554519    8.0531312594
H       -0.1165392374   -0.0001454853    4.2926728049
22   

C        1.8897912416   -1.0596314479   -0.1503375295
C        1.4065580322    0.0545725979    0.5422192752
C        2.3239448499   -2.1843495485    0.5576556935
C        2.7969483216   -1.5620501768    6.2942062511
C        1.3560480750    0.0424516740    1.9411845361
C        2.2731629923   -2.1946574909    1.9567401401
C        2.8332146591   -1.5736498270    4.8954165028
C        1.6720131395   -1.0636604506    6.9590703751
C        0.6272942452   -0.5893302464    4.8319909562
C        1.7841173881   -1.0842979898    2.6639067469
C        1.7452959146   -1.0927938592    4.1473274417
C        0.5833023738   -0.5743145131    6.2308787712
Cl      -0.8177464871    0.0481498894    7.0584144781
H        1.9290500675   -1.0508597052   -1.2359677774
H        1.0731332240    0.9317507389   -0.0049419584
H        2.6992291508   -3.0516023006    0.0219513236
H        3.6434969240   -1.9361676478    6.8630875423
H        0.9914670095    0.9189958563    2.4683155127
H        2.6051265122   -3.0769470260    2.4955152085
H        3.7160039948   -1.9487869788    4.3863912848
H        1.6391573120   -1.0522584087    8.0444766037
H       -0.2259893939   -0.2151816424    4.2755081796
22   

C        1.8856366787   -1.0595670114   -0.1460374268
C        1.5406206298    0.1011614579    0.5541214578
C        2.1699810118   -2.2371619604    0.5534029892
C        2.8303642480   -1.4267509972    6.2874853552
C        1.4770951358    0.0822081567    1.9524893762
C        2.1059505189   -2.2540018959    1.9519681621
C        2.8579240961   -1.4524009743    4.8886683277
C        1.6604402138   -1.0480231960    6.9551466423
C        0.5543637474   -0.7193811673    4.8311527977
C        1.7495135613   -1.0986058406    2.6620860418
C        1.7150827967   -1.1100584424    4.1483505031
C        0.5185924063   -0.6907353579    6.2301415472
Cl      -0.9352253221   -0.2112234624    7.0617294399
H        1.9356270637   -1.0455937145   -1.2311714498
H        1.3253202525    1.0185165961    0.0136629801
H        2.4412127623   -3.1388214489    0.0117489132
H        3.7173669642   -1.6963673837    6.8538457611
H        1.2199147809    0.9881114338    2.4936297569
H        2.3278161068   -3.1698781453    2.4917922762
H        3.7693714600   -1.7340193060    4.3693836859
H        1.6340794743   -1.0255619840    8.0405557993
H       -0.3318903197   -0.4409239475    4.2696069900
22   

C        1.8868857448   -1.0679237477   -0.1450526533
C        1.7114115392    0.1298720367    0.5563533276
C        2.0050644499   -2.2746249545    0.5532683062
C        2.8667303222   -1.2676088573    6.2912661591
C        1.6518194828    0.1191497109    1.9550143484
C        1.9450620767   -2.2828089114    1.9521307795
C        2.9005042663   -1.2904607791    4.8925173744
C        1.6558377267   -1.0417371165    6.9557740406
C        0.5214064231   -0.8600970516    4.8288796005
C        1.7601612421   -1.0886231026    2.6611787249
C        1.7249479228   -1.0963011851    4.1517417739
C        0.4787520096   -0.8353045091    6.2278145728
Cl      -1.0266964716   -0.5468235884    7.0557075449
H        1.9336771426   -1.0606668293   -1.2303944432
H        1.6236682533    1.0685360391    0.0167294788
H        2.1443824285   -3.2053155554    0.0107194286
H        3.7794911578   -1.4220109124    6.8598276665
H        1.5224988013    1.0494889131    2.5004480840
H        2.0393534754   -3.2191908677    2.4942948982
H        3.8393016886   -1.4573399493    4.3722403895
H        1.6241537377   -1.0222401777    8.0410977894
H       -0.3898109037   -0.6969832402    4.2618175348
22   

C        1.8770475558   -1.0790290968   -0.1465643540
C        1.9016237871    0.1358288154    0.5471119615
C        1.8125643576   -2.2849798681    0.5601396466
C        2.8893632099   -1.0907735541    6.3028693055
C        1.8618624204    0.1430628137    1.9465281020
C        1.7729043848   -2.2749138816    1.9597074130
C        2.9384748042   -1.0969406571    4.9043882578
C        1.6527462298   -1.0437506051    6.9567087004
C        0.5233633300   -1.0093516610    4.8197192246
C        1.7974820640   -1.0625048667    2.6608618016
C        1.7546367197   -1.0562277842    4.1535174278
C        0.4647954249   -1.0028532185    6.2182965042
Cl      -1.0740685120   -0.9443517003    7.0328367996
H        1.9075190954   -1.0859042225   -1.2324888113
H        1.9510866017    1.0734274821    0.0008188229
H        1.7928030250   -3.2292925260    0.0236256781
H        3.8095818292   -1.1224348797    6.8794395530
H        1.8802449497    1.0852815372    2.4865289544
H        1.7222295122   -3.2105621793    2.5090050030
H        3.8954001587   -1.1333551279    4.3916878013
H        1.6087908000   -1.0387553629    8.0417682370
H       -0.3963963206   -0.9776985560    4.2438936455
22   

C        1.8730225433   -1.0909149216   -0.1472299723
C        2.0888584175    0.1088217285    0.5392718775
C        1.6241792055   -2.2680790466    0.5667784220
C        2.8687712391   -0.9165675989    6.3128432227
C        2.0583118205    0.1291716269    1.9387864214
C        1.5942128417   -2.2448961903    1.9663980681
C        2.9311753123   -0.9102793640    4.9149019638
C        1.6320431675   -1.0465386022    6.9548329146
C        0.5293714402   -1.1658404223    4.8070950588
C        1.8187629009   -1.0492129978    2.6618444988
C        1.7598458739   -1.0256666352    4.1515139173
C        0.4575637534   -1.1734154095    6.2050134103
Cl      -1.0810100086   -1.3420695048    7.0046069361
H        1.8956692049   -1.1078660471   -1.2332355338
H        2.2773303848    1.0251479707   -0.0128044028
H        1.4526372684   -3.2001090470    0.0358662701
H        3.7792006888   -0.8234468021    6.8982348754
H        2.2185669051    1.0616496844    2.4721005306
H        1.3980501797   -3.1584969400    2.5201410884
H        3.8896242667   -0.8171919301    4.4123534971
H        1.5778630716   -1.0526408435    8.0394239200
H       -0.3804255975   -1.2668477179    4.2234978264
22   

C        1.8693649515   -1.0924785246   -0.1504266795
C        2.2486163673    0.0630501698    0.5404288844
C        1.4552021991   -2.2245080561    0.5591847451
C        2.8387934201   -0.7581354097    6.3065432349
C        2.2164639975    0.0840298570    1.9398600882
C        1.4236673053   -2.2012741468    1.9587290905
C        2.8980574286   -0.7532402354    4.9084903479
C        1.6299326977   -1.0399208978    6.9522657247
C        0.5484440905   -1.3134606881    4.8079713420
C        1.8127546079   -1.0512419071    2.6610595672
C        1.7496278639   -1.0200745335    4.1461833151
C        0.4805122538   -1.3206971137    6.2060301392
Cl      -1.0228599868   -1.6787069418    7.0102468045
H        1.8932955685   -1.1096763736   -1.2364013639
H        2.5645899759    0.9455765654   -0.0084442849
H        1.1570169216   -3.1219769123    0.0247520483
H        3.7310334113   -0.5472791795    6.8893625791
H        2.5011433233    0.9860633395    2.4734734409
H        1.1013496809   -3.0826020119    2.5055633397
H        3.8385018748   -0.5460206005    4.4061711979
H        1.5785997147   -1.0456812660    8.0369975220
H       -0.3444861569   -1.5315884871    4.2305425378
22   

C        1.8714664360   -1.0859073463   -0.1512554383
C        2.3879986889    0.0067125901    0.5515144153
C        1.3147598639   -2.1618031057    0.5467452527
C        2.8069731450   -0.6236011732    6.3006282221
C        2.3490331427    0.0215750458    1.9508241655
C        1.2761203101   -2.1451447381    1.9461450621
C        2.8568930247   -0.6267729449    4.9022175546
C        1.6425370590   -1.0328686115    6.9583098110
C        0.5855636243   -1.4481399211    4.8249235086
C        1.7967097633   -1.0559966020    2.6642813309
C        1.7438329276   -1.0338390520    4.1472658351
C        0.5277193273   -1.4476888874    6.2233754472
Cl      -0.9228456855   -1.9584948741    7.0420191130
H        1.9012302603   -1.0982838898   -1.2371529731
H        2.8166187581    0.8462470489    0.0116819697
H        0.9132365519   -3.0123235752    0.0032490827
H        3.6731816116   -0.3070586029    6.8748335950
H        2.7412278741    0.8809517489    2.4861595583
H        0.8491488662   -2.9909963336    2.4765615702
H        3.7688382781   -0.3207606172    4.3983249082
H        1.5988173361   -1.0322957898    8.0433904309
H       -0.2880424873   -1.7632441009    4.2634503904
22   

C        1.9240227798   -1.0574332362   -0.1569309556
C        1.4077319531   -2.1643846581    0.5207305530
C        2.3712718442    0.0507876139    0.5661471661
C        0.6237518291   -1.7473971513    6.2200375605
C        1.3402876313   -2.1631384872    1.9190909397
C        2.3039000096    0.0506163773    1.9644163348
C        0.6905682263   -1.7505492517    4.8223177582
C        1.5760825113   -1.0456535531    6.9636238839
C        2.6567470200   -0.3549075431    4.9160470941
C        1.7917720734   -1.0585517889    2.6638525530
C        1.7058053476   -1.0507126246    4.1459949538
C        2.5968444325   -0.3472895012    6.3143285146
Cl       3.7912958753    0.5208751955    7.2390713421
H        1.9761747995   -1.0577270496   -1.2420563103
H        1.0610863413   -3.0289416692   -0.0381405920
H        2.7671267462    0.9163590642    0.0425991597
H       -0.1706358690   -2.2877301083    6.7272241524
H        0.9504671467   -3.0433280157    2.4196601424
H        2.6374356407    0.9341366165    2.4989608540
H       -0.0706779449   -2.2883827751    4.2666365395
H        1.5284407089   -1.0406466436    8.0485336345
H        3.4721134634    0.1759560954    4.4369660325
22   

C        1.9156403151   -1.0542950843   -0.1662575950
C        1.2709766514   -2.0915259383    0.5077697274
C        2.4950723933   -0.0158006287    0.5625105331
C        0.7185252461   -1.8558918770    6.2391497896
C        1.2098223391   -2.0926732371    1.9065387034
C        2.4335975657   -0.0179109792    1.9609021822
C        0.7809404749   -1.8549160517    4.8411146162
C        1.5880815853   -1.0544051428    6.9797541354
C        2.5811431096   -0.2583046163    4.9273790735
C        1.8001875817   -1.0645926496    2.6658985752
C        1.7043515320   -1.0469758786    4.1511526046
C        2.5246996132   -0.2540008215    6.3257400495
Cl       3.6247304087    0.7363833525    7.2451333418
H        1.9627776712   -1.0532281927   -1.2516170381
H        0.8175676908   -2.9025489050   -0.0549558247
H        2.9887183160    0.8006334168    0.0430811323
H       -0.0102985373   -2.4793373744    6.7494624150
H        0.7135413703   -2.9328590025    2.3769510542
H        2.8717531477    0.8285141081    2.4764721691
H        0.0704101049   -2.4803811131    4.3141089081
H        1.5429148946   -1.0524937182    8.0647837966
H        3.3463429539    0.3552168207    4.4682289780
22   

C        1.9066897526   -1.0512421068   -0.1814875792
C        1.1046496652   -1.9741638456    0.4866264885
C        2.6490890174   -0.1307510761    0.5549118067
C        0.8516739579   -1.9949098187    6.2463883542
C        1.0447041234   -1.9772421068    1.8855660477
C        2.5889505103   -0.1340584372    1.9532761339
C        0.9131400034   -1.9899804494    4.8482249835
C        1.5934333652   -1.0745799438    6.9849147054
C        2.4552890933   -0.1477294521    4.9289771351
C        1.7831880809   -1.0595884639    2.6581512216
C        1.7155819753   -1.0676806849    4.1487511403
C        2.3985610052   -0.1469637789    6.3273484581
Cl       3.3294167805    1.0075404974    7.2424803029
H        1.9528253557   -1.0493393908   -1.2668931165
H        0.5232279961   -2.6946606406   -0.0815954931
H        3.2768697522    0.5920528957    0.0415463805
H        0.2237883786   -2.7183099343    6.7590148500
H        0.3992692408   -2.7247019094    2.3263737794
H        3.1928555791    0.6098622915    2.4556234375
H        0.3093224537   -2.7342625172    4.3468612882
H        1.5479747586   -1.0756904212    8.0699381711
H        3.0998821365    0.5991728905    4.4867137817
22   

C        1.9088838964   -1.0314864553   -0.1735915481
C        0.9646778222   -1.8224480435    0.4811013395
C        2.7932652000   -0.2547511010    0.5746723346
C        0.9965251391   -2.1238567698    6.2350906042
C        0.9020282450   -1.8333067174    1.8797617453
C        2.7297212961   -0.2660515577    1.9729329798
C        1.0591569178   -2.1112358131    4.8371189776
C        1.5965044862   -1.1024125297    6.9724762994
C        2.3147968615   -0.0581850505    4.9167783048
C        1.7727584943   -1.0465709340    2.6575503920
C        1.7304121220   -1.0857127287    4.1448657394
C        2.2562139193   -0.0640193482    6.3150448602
Cl       2.9928604014    1.2234345723    7.2293838781
H        1.9577496567   -1.0234123018   -1.2588457524
H        0.2738197888   -2.4296646551   -0.0968289931
H        3.5382791027    0.3546339897    0.0710259018
H        0.4825446727   -2.9319179271    6.7480715221
H        0.1365856577   -2.4511870324    2.3334195731
H        3.4604089552    0.3305899765    2.5061856913
H        0.5938173802   -2.9380287210    4.3139983315
H        1.5498635137   -1.1085148612    8.0574284755
H        2.8100466506    0.7856829715    4.4526742734
22   

C        1.9067283792   -1.0300483764   -0.1593751176
C        0.8725303048   -1.7061619851    0.4920845382
C        2.8818018350   -0.3680556238    0.5902979443
C        1.1245240826   -2.1862748202    6.2345776756
C        0.8132419300   -1.7187954840    1.8907538739
C        2.8210972790   -0.3808828581    1.9888168648
C        1.1819078091   -2.1745217916    4.8364758645
C        1.6113046943   -1.0979205648    6.9631946795
C        2.2089651799    0.0081480816    4.8999774052
C        1.7828766061   -1.0524508686    2.6617666373
C        1.7291517812   -1.0788016672    4.1451978944
C        2.1547292807    0.0039535798    6.2984911256
Cl       2.7538782194    1.3665787015    7.2039527663
H        1.9534372967   -1.0203011183   -1.2447046443
H        0.1111685957   -2.2201819564   -0.0876329934
H        3.6915250463    0.1531480722    0.0875937433
H        0.7046350845   -3.0431313869    6.7539396910
H       -0.0107248148   -2.2375031046    2.3695900705
H        3.6046472294    0.1226396539    2.5456879878
H        0.8135468728   -3.0389470652    4.2936856946
H        1.5685450275   -1.1024593242    8.0483083672
H        2.6144610123    0.8850574818    4.4072685127
22   

C        1.9147950585   -1.0232888115   -0.1566819754
C        0.8042067820   -1.5818389090    0.4829401013
C        2.9588956838   -0.4877094409    0.6033752914
C        1.2366755464   -2.2518681051    6.2268470206
C        0.7396445688   -1.6059214805    1.8811715718
C        2.8925427556   -0.5121429342    2.0016228156
C        1.2895635568   -2.2390873059    4.8286056275
C        1.6090396327   -1.1140080591    6.9497170631
C        2.0866946762    0.0414996576    4.8814648859
C        1.7849248260   -1.0753860717    2.6565474456
C        1.7099504169   -1.0893605757    4.1386937575
C        2.0364470932    0.0366827866    6.2802087647
Cl       2.5013136846    1.4541957384    7.1800922476
H        1.9657325021   -1.0041107369   -1.2416934957
H       -0.0107559120   -1.9942024824   -0.1050609984
H        3.8232842013   -0.0536387137    0.1089983265
H        0.9102272236   -3.1460507086    6.7503912795
H       -0.1334128331   -2.0303981409    2.3675040208
H        3.7141762389   -0.1009403474    2.5803643683
H        1.0120445144   -3.1305857084    4.2741610671
H        1.5698425955   -1.1189185931    8.0349601141
H        2.4111691719    0.9424972904    4.3709270466
22   

C        1.9206525502   -1.0214129073   -0.1551124466
C        0.7461591312   -1.4430402509    0.4766871659
C        3.0222152240   -0.6280939872    0.6119886472
C        1.3713699476   -2.2834178110    6.2362281860
C        0.6758037405   -1.4740365758    1.8745322644
C        2.9496340382   -0.6597276187    2.0098391935
C        1.4162901045   -2.2798422720    4.8376390444
C        1.6161228171   -1.1020049137    6.9447883946
C        1.9521484449    0.0774609476    4.8619058427
C        1.7803512185   -1.0916433592    2.6528279085
C        1.6962753894   -1.0956750306    4.1372228300
C        1.9094671798    0.0825692255    6.2609739300
Cl       2.2213784331    1.5518297379    7.1436111748
H        1.9761460788   -0.9963305728   -1.2397783355
H       -0.1128377783   -1.7429587461   -0.1167159068
H        3.9342844348   -0.2970951684    0.1235704768
H        1.1506293927   -3.2030369075    6.7708366867
H       -0.2409615863   -1.7915415986    2.3625716532
H        3.8074231771   -0.3533814332    2.6014517172
H        1.2378733580   -3.1988162585    4.2868628325
H        1.5831690011   -1.0994126749    8.0302458795
H        2.1799617683    0.9976011506    4.3329718955
22   

C        1.9192431174   -1.0249219367   -0.1524257749
C        0.6987353607   -1.2834402268    0.4806393494
C        3.0676447635   -0.7966167671    0.6134060247
C        1.5297343148   -2.3117810253    6.2465354060
C        0.6289114095   -1.3160455670    1.8785134933
C        2.9949954047   -0.8298337233    2.0112569148
C        1.5732877159   -2.3113380562    4.8478669039
C        1.6226712928   -1.1039197430    6.9472273619
C        1.8045135959    0.0953266939    4.8563789036
C        1.7783251658   -1.0974185842    2.6530004908
C        1.7017855179   -1.1057792903    4.1420287539
C        1.7621367452    0.1042935763    6.2554915183
Cl       1.8846786278    1.6069848763    7.1283626643
H        1.9745713219   -0.9985540019   -1.2370694352
H       -0.1953905009   -1.4560974633   -0.1115529636
H        4.0156808259   -0.5920295608    0.1241759129
H        1.4267050506   -3.2484963143    6.7870781720
H       -0.3197867032   -1.5094720778    2.3706305368
H        3.8862490663   -0.6495976271    2.6053607732
H        1.5090698935   -3.2471148925    4.3001056680
H        1.5900348786   -1.0984919588    8.0326838843
H        1.9153657148    1.0314089609    4.3178803642
22   

C        1.9066783455   -1.0356909513   -0.1520775506
C        0.6687636620   -1.1029636169    0.4965345620
C        3.0863557853   -0.9889247750    0.5989535653
C        1.7064706710   -2.3235023848    6.2452077057
C        0.6122555796   -1.1235409782    1.8952476467
C        3.0269455972   -1.0096380278    1.9976995153
C        1.7616368403   -2.3127821488    4.8469766542
C        1.6219411069   -1.1165076236    6.9487184199
C        1.6479340541    0.1025515396    4.8614924563
C        1.7912002247   -1.0771869095    2.6538733323
C        1.7327031871   -1.0985959668    4.1458371986
C        1.5923061970    0.1013520237    6.2602018715
Cl       1.4870804790    1.6033678278    7.1364862849
H        1.9518029904   -1.0193159336   -1.2373898038
H       -0.2485465227   -1.1387932039   -0.0841815355
H        4.0485167389   -0.9360985097    0.0975348182
H        1.7292481281   -3.2671150837    6.7830871708
H       -0.3479404913   -1.1751177956    2.4002994337
H        3.9421800007   -0.9727442112    2.5814124724
H        1.8273113682   -3.2465225935    4.2958792947
H        1.5788643748   -1.1189558461    8.0338218971
H        1.6251472316    1.0456660995    4.3243209418
22   

C        1.8952316329   -1.0344770348   -0.1523769644
C        0.6718796025   -0.9046071976    0.5139933701
C        3.0785070220   -1.1722574825    0.5815538599
C        1.8839046635   -2.3111931679    6.2347644717
C        0.6335979653   -0.9101546355    1.9134280494
C        3.0377439276   -1.1774462212    1.9811240936
C        1.9557371563   -2.2794311863    4.8376350007
C        1.6203231569   -1.1350755143    6.9461785612
C        1.4988223430    0.0953946978    4.8689439552
C        1.8176335017   -1.0384836922    2.6556548496
C        1.7730643706   -1.0726723899    4.1455982304
C        1.4249497260    0.0724463004    6.2666173284
Cl       1.0895567271    1.5344822943    7.1525980885
H        1.9259859686   -1.0307079936   -1.2383090414
H       -0.2486067155   -0.8017791020   -0.0535576271
H        4.0289803762   -1.2762415656    0.0660522563
H        2.0296001646   -3.2478021160    6.7655874814
H       -0.3165057084   -0.8162778040    2.4313510760
H        3.9559456252   -1.2869574944    2.5508217096
H        2.1520449671   -3.1911143691    4.2807020092
H        1.5627584229   -1.1542751016    8.0304432401
H        1.3443991273    1.0303093650    4.3392566986
22   

C        1.8883693424   -1.0377448555   -0.1529712439
C        0.6997833371   -0.7362388318    0.5200114616
C        3.0438981821   -1.3412186297    0.5746696953
C        2.0399542575   -2.2666769586    6.2409711304
C        0.6688184309   -0.7352966724    1.9196055650
C        3.0108124023   -1.3397981412    1.9744111813
C        2.1151954163   -2.2309898005    4.8441296267
C        1.6241979842   -1.1318986472    6.9462052615
C        1.3576034375    0.0652600153    4.8632908207
C        1.8270618177   -1.0272932529    2.6580241702
C        1.7857186150   -1.0595287318    4.1437948490
C        1.2792707718    0.0377330824    6.2605670252
Cl       0.7536942844    1.4476940750    7.1385367463
H        1.9131349021   -1.0391803655   -1.2390629309
H       -0.2004651031   -0.5062274381   -0.0426947506
H        3.9671527770   -1.5787511448    0.0539745275
H        2.2998640621   -3.1754836118    6.7764609534
H       -0.2585037628   -0.5118441914    2.4390073265
H        3.9096742457   -1.5763708682    2.5361446623
H        2.4256362359   -3.1152310629    4.2950886105
H        1.5631961801   -1.1546485476    8.0302132907
H        1.0887003798    0.9730070502    4.3322495038
22   

C        1.8896454783   -1.0423720226   -0.1568816522
C        0.7456754451   -0.6023055623    0.5155980215
C        2.9934430300   -1.4961013494    0.5714592877
C        2.1733444886   -2.2324626968    6.2549064650
C        0.7071759389   -0.6144591702    1.9149359956
C        2.9530899625   -1.5080342395    1.9708804375
C        2.2346862575   -2.2058628176    4.8571913082
C        1.6387073436   -1.1435444558    6.9508947862
C        1.2273550204   -0.0092880693    4.8568203875
C        1.8123664720   -1.0628142956    2.6584295290
C        1.7677294487   -1.0902956136    4.1416390383
C        1.1625917180   -0.0282498899    6.2548447539
Cl       0.4950983691    1.3279340763    7.1211248531
H        1.9201843596   -1.0329656500   -1.2427875663
H       -0.1153128494   -0.2537869142   -0.0476383710
H        3.8837654077   -1.8378812290    0.0514056555
H        2.5370637691   -3.0998281887    6.7986137797
H       -0.1919223994   -0.2829263312    2.4256457260
H        3.8195256533   -1.8545600665    2.5259666375
H        2.6378706712   -3.0610564845    4.3231136084
H        1.5887133328   -1.1595008278    8.0355883379
H        0.8631118497    0.8642367057    4.3257496791
22   

C        1.8911894453   -1.0397777244   -0.1596800507
C        0.8004814261   -0.4813592721    0.5107393097
C        2.9272307029   -1.6258840286    0.5711021316
C        2.2884867344   -2.1603320741    6.2804747703
C        0.7459671063   -0.5101844849    1.9093087604
C        2.8710907513   -1.6545989352    1.9696330060
C        2.3269167383   -2.1565655716    4.8817038118
C        1.6532030202   -1.1209352780    6.9648802843
C        1.0986417850   -0.0795013391    4.8563783186
C        1.7773603220   -1.1009347000    2.6615884441
C        1.7289932977   -1.1180829508    4.1453811169
C        1.0564544643   -0.0760673718    6.2553312638
Cl       0.2718956895    1.2262016329    7.1063034750
H        1.9342159432   -1.0167688360   -1.2449622812
H       -0.0083694770   -0.0265126183   -0.0539701636
H        3.7804712795   -2.0549957000    0.0536081784
H        2.7496668141   -2.9731089627    6.8345093251
H       -0.1216729054   -0.0839244769    2.4023372175
H        3.7005319839   -2.0960128134    2.5122700385
H        2.8109259237   -2.9834466508    4.3721751572
H        1.6213090829   -1.1193355018    8.0503764631
H        0.6480352311    0.7548932360    4.3302409855
22   

C        1.8980560453   -1.0331270530   -0.1731792235
C        0.8839389313   -0.3551791510    0.5031449847
C        2.8495434117   -1.7490172990    0.5530048605
C        2.4093037635   -2.0737038480    6.2947489125
C        0.8195491796   -0.3959394278    1.9010808049
C        2.7840374892   -1.7892746859    1.9507154789
C        2.4309130914   -2.0844159633    4.8956159343
C        1.6731239303   -1.1039898310    6.9762151294
C        0.9868942826   -0.1583861540    4.8624001482
C        1.7593974203   -1.1220681199    2.6572113154
C        1.7116182910   -1.1353078037    4.1449256150
C        0.9605275450   -0.1411345953    6.2616278922
Cl       0.0522277872    1.0823506170    7.1068198687
H        1.9483952239   -1.0008367600   -1.2579140587
H        0.1398802380    0.2038818477   -0.0571119016
H        3.6478584900   -2.2703400176    0.0325140010
H        2.9640304926   -2.8234056738    6.8519826055
H       -0.0010183769    0.1319920209    2.3722056585
H        3.5657114640   -2.3344433431    2.4659459004
H        3.0013182666   -2.8699852916    4.4143483683
H        1.6540074573   -1.0917472529    8.0619489515
H        0.4427134272    0.6293899869    4.3567419946
22   

C        1.8784171720   -1.0458569586   -0.1862066376
C        1.0060271838   -0.2077082385    0.5047600945
C        2.7142781162   -1.9009918105    0.5282931239
C        2.5507678474   -1.9574361752    6.3014593342
C        0.9693463852   -0.2243208145    1.9043124404
C        2.6769274217   -1.9169263918    1.9274394160
C        2.5905390630   -1.9439128906    4.9026564373
C        1.6757431127   -1.1164500423    6.9865284072
C        0.8840313779   -0.2522163168    4.8756588328
C        1.8012636599   -1.0769674580    2.6562394865
C        1.7601218999   -1.0926428854    4.1478339143
C        0.8386673627   -0.2601985337    6.2744908888
Cl      -0.2587672690    0.7949710709    7.1225291323
H        1.9065146070   -1.0326063172   -1.2721484358
H        0.3512007908    0.4618654584   -0.0456729751
H        3.3973493488   -2.5576185019   -0.0030176618
H        3.2037850342   -2.6253842676    6.8561989510
H        0.2653820608    0.4556820595    2.3649123856
H        3.3550120522   -2.6070209313    2.4112649806
H        3.2944073402   -2.6238054632    4.4415912668
H        1.6420116114   -1.1240999940    8.0719522409
H        0.2064462851    0.4373913043    4.3918090963
