22   

C        1.8654152615   -1.0660883739   -0.1744318538
C        1.1522271548   -0.0843873981    0.5133809853
C        2.5628532502   -2.0384039254    0.5420544879
C        2.6657757219   -1.8148234651    6.3045494116
C        1.1394482465   -0.0730449816    1.9132880421
C        2.5495685453   -2.0259417281    1.9417598757
C        2.7295918291   -1.7829406733    4.9070282501
C        1.6636552318   -1.1135362044    6.9758559077
C        0.7918049184   -0.3553007228    4.8549482944
C        1.8458659547   -1.0347861920    2.6605102600
C        1.8023724922   -1.0437055815    4.1483916348
C        0.7214038176   -0.3824893724    6.2524946947
Cl      -0.5422085102    0.4823617608    7.0841138471
H        1.8746739066   -1.0752704844   -1.2607358262
H        0.6073073875    0.6756754438   -0.0392737753
H        3.1114773414   -2.8117612989    0.0120308352
H        3.3994024536   -2.3839477950    6.8686179523
H        0.5858650877    0.7243758259    2.3946060727
H        3.0826895102   -2.8219907803    2.4475001390
H        3.5384774090   -2.3277996640    4.4348710733
H        1.6101836963   -1.1359647945    8.0602778879
H        0.0182905375    0.2009936885    4.3405300386
22   

C        1.8817502721   -1.0657779892   -0.1571827092
C        1.2826713976   -0.0051046544    0.5261875449
C        2.4482349465   -2.1209277133    0.5616140667
C        2.7324625943   -1.6791319340    6.3070251562
C        1.2513589074    0.0003645067    1.9257567691
C        2.4167723074   -2.1137929063    1.9611915601
C        2.7884021354   -1.6678720082    4.9088814893
C        1.6576278622   -1.0792118630    6.9682458376
C        0.6999760711   -0.4606608540    4.8379388536
C        1.8215456537   -1.0507702391    2.6664203553
C        1.7750222552   -1.0547873246    4.1503950299
C        0.6368224710   -0.4682757799    6.2360808815
Cl      -0.7093884769    0.2722284707    7.0576378999
H        1.9054195243   -1.0707715981   -1.2432910232
H        0.8428519032    0.8184834632   -0.0290446556
H        2.9088432092   -2.9510329832    0.0336699063
H        3.5263902907   -2.1513810432    6.8787829436
H        0.7943946114    0.8456770443    2.4299465099
H        2.8442733149   -2.9573844130    2.4930434630
H        3.6417567234   -2.1249653127    4.4185080123
H        1.6096842029   -1.0859490917    8.0531315059
H       -0.1165357231   -0.0001393249    4.2926731062
22   

C        1.8897195046   -1.0596637073   -0.1503390165
C        1.4065291256    0.0545589851    0.5422181081
C        2.3238504518   -2.1843907247    0.5576543783
C        2.7969499969   -1.5620473278    6.2942062343
C        1.3560480750    0.0424516740    1.9411845361
C        2.2730956717   -2.1946862519    1.9567399168
C        2.8332146591   -1.5736498270    4.8954165028
C        1.6720166981   -1.0636534109    6.9590704446
C        0.6272971666   -0.5893239653    4.8319910508
C        1.7841173881   -1.0842979898    2.6639067469
C        1.7452959146   -1.0927938592    4.1473274417
C        0.5833067011   -0.5743055121    6.2308789119
Cl      -0.8177394681    0.0481647064    7.0584147982
H        1.9289585706   -1.0509012266   -1.2359700529
H        1.0731142542    0.9317404059   -0.0049439250
H        2.6990954715   -3.0516600309    0.0219492954
H        3.6434982079   -1.9361659849    6.8630873317
H        0.9914949341    0.9190070233    2.4683163305
H        2.6050368203   -3.0769830058    2.4955170717
H        3.7160013011   -1.9487906838    4.3863891781
H        1.6391618338   -1.0522493900    8.0444766814
H       -0.2259854606   -0.2151731492    4.2755081610
22   

C        1.8855142027   -1.0596031020   -0.1460418551
C        1.5405710057    0.1011461353    0.5541190117
C        2.1698203492   -2.2372081041    0.5533977299
C        2.8303650882   -1.4267490059    6.2874853125
C        1.4770951358    0.0822081567    1.9524893762
C        2.1058363478   -2.2540344825    1.9519652270
C        2.8579240961   -1.4524009743    4.8886683277
C        1.6604419073   -1.0480184850    6.9551465839
C        0.5543651018   -0.7193771444    4.8311527434
C        1.7495135613   -1.0986058406    2.6620860418
C        1.7150827967   -1.1100584424    4.1483505031
C        0.5185944119   -0.6907295142    6.2301414901
Cl      -0.9352220997   -0.2112139536    7.0617293923
H        1.9354706393   -1.0456401560   -1.2311775735
H        1.3252871197    1.0185047743    0.0136599084
H        2.4409852109   -3.1388861417    0.0117410504
H        3.7173676398   -1.6963661594    6.8538456108
H        1.2199621212    0.9881238415    2.4936315275
H        2.3276641724   -3.1699196606    2.4917897474
H        3.7693698796   -1.7340221329    4.3693823831
H        1.6340816211   -1.0255559354    8.0405557251
H       -0.3318884012   -0.4409184926    4.2696067133
22   

C        1.8867720918   -1.0679390818   -0.1450568223
C        1.7113653073    0.1298654658    0.5563513214
C        2.0049156729   -2.2746445436    0.5532630378
C        2.8667302682   -1.2676090840    6.2912661613
C        1.6518194828    0.1191497109    1.9550143484
C        1.9449565274   -2.2828228801    1.9521274221
C        2.9005042663   -1.2904607791    4.8925173744
C        1.6558375738   -1.0417377534    6.9557740234
C        0.5214062611   -0.8600977992    4.8288795684
C        1.7601612421   -1.0886231026    2.6611787249
C        1.7249479228   -1.0963011851    4.1517417739
C        0.4787517922   -0.8353054801    6.2278145397
Cl      -1.0266968180   -0.5468252211    7.0557074954
H        1.9335318605   -1.0606865577   -1.2304000045
H        1.6236369885    1.0685308361    0.0167274162
H        2.1441717450   -3.2053429631    0.0107116831
H        3.7794911052   -1.4220111506    6.8598276653
H        1.5225425223    1.0494940822    2.5004496410
H        2.0392130716   -3.2192087857    2.4942907851
H        3.8393014930   -1.4573402193    4.3722401264
H        1.6241535368   -1.0222409850    8.0410977770
H       -0.3898109934   -0.6969840968    4.2618173257
22   

C        1.8770478923   -1.0790290951   -0.1465643467
C        1.9016239249    0.1358288204    0.5471119665
C        1.8125647858   -2.2849798729    0.5601396504
C        2.8893632199   -1.0907735758    6.3028693053
C        1.8618624204    0.1430628137    1.9465281020
C        1.7729046792   -2.2749138884    1.9597074138
C        2.9384748042   -1.0969406571    4.9043882578
C        1.6527462463   -1.0437506110    6.9567087100
C        0.5233633334   -1.0093516521    4.8197192352
C        1.7974820640   -1.0625048667    2.6608618016
C        1.7546367197   -1.0562277842    4.1535174278
C        0.4647954398   -1.0028532037    6.2182965181
Cl      -1.0740684866   -0.9443516550    7.0328368286
H        1.9075195318   -1.0859042181   -1.2324888008
H        1.9510866974    1.0734274917    0.0008188309
H        1.7928036294   -3.2292925342    0.0236256802
H        3.8095818428   -1.1224349356    6.8794395423
H        1.8802448133    1.0852815396    2.4865289548
H        1.7222298946   -3.2105621920    2.5090050002
H        3.8954001540   -1.1333551351    4.3916877928
H        1.6087908264   -1.0387553731    8.0417682484
H       -0.3963963246   -0.9776985488    4.2438936661
22   

C        1.8731335747   -1.0909380617   -0.1472264228
C        2.0889035426    0.1088119775    0.5392730149
C        1.6243246095   -2.2681088567    0.5667832509
C        2.8687709247   -0.9165679474    6.3128431985
C        2.0583118205    0.1291716269    1.9387864214
C        1.5943159816   -2.2449173753    1.9664018723
C        2.9311753123   -0.9102793640    4.9149019638
C        1.6320426902   -1.0465395370    6.9548325374
C        0.5293714704   -1.1658415471    4.8070943669
C        1.8187629009   -1.0492129978    2.6618444988
C        1.7598458739   -1.0256666352    4.1515139173
C        0.4575634657   -1.1734168118    6.2050127244
Cl      -1.0810103579   -1.3420719369    7.0046059112
H        1.8958111495   -1.1078957786   -1.2332312369
H        2.2773608348    1.0251405953   -0.0128043377
H        1.4528432193   -3.2001509668    0.0358728044
H        3.7792001997   -0.8234468885    6.8982350800
H        2.2185240882    1.0616578671    2.4720991064
H        1.3981873505   -3.1585244261    2.5201465432
H        3.8896242077   -0.8171913418    4.4123534671
H        1.5778623289   -1.0526419792    8.0394235292
H       -0.3804250707   -1.2668498622    4.2234965360
22   

C        1.8694843389   -1.0925230105   -0.1504216918
C        2.2486646980    0.0630314577    0.5404302840
C        1.4553589759   -2.2245652688    0.5591918039
C        2.8387931048   -0.7581386967    6.3065432135
C        2.2164639975    0.0840298570    1.9398600882
C        1.4237787666   -2.2013145791    1.9587348869
C        2.8980574286   -0.7532402354    4.9084903479
C        1.6299328696   -1.0399290080    6.9522647632
C        0.5484456729   -1.3134686114    4.8079695737
C        1.8127546079   -1.0512419071    2.6610595672
C        1.7496278639   -1.0200745335    4.1461833151
C        0.4805134879   -1.3207080213    6.2060283592
Cl      -1.0228575191   -1.6787252605    7.0102440206
H        1.8934480013   -1.1097335275   -1.2363954481
H        2.5646221722    0.9455624957   -0.0084447145
H        1.1572390200   -3.1220573175    0.0247616206
H        3.7310323770   -0.5472812940    6.8893632367
H        2.5010970229    0.9860790752    2.4734715869
H        1.1014980716   -3.0826538852    2.5055724934
H        3.8385012073   -0.5460172771    4.4061712800
H        1.5785996022   -1.0456915753    8.0369965364
H       -0.3444823213   -1.5316002719    4.2305386903
22   

C        1.8715366889   -1.0859446985   -0.1512518535
C        2.3880269792    0.0066970107    0.5515153696
C        1.3148524190   -2.1618511826    0.5467505094
C        2.8069732858   -0.6236050936    6.3006282485
C        2.3490331427    0.0215750458    1.9508241655
C        1.2761863625   -2.1451785295    1.9461494404
C        2.8568930247   -0.6267729449    4.9022175546
C        1.6425384260   -1.0328780960    6.9583088615
C        0.5855664301   -1.4481489657    4.8249217007
C        1.7967097633   -1.0559966020    2.6642813309
C        1.7438329276   -1.0338390520    4.1472658351
C        0.5277222120   -1.4477014695    6.2233736524
Cl      -0.9228403835   -1.9585159077    7.0420163029
H        1.9013198665   -1.0983318675   -1.2371487382
H        2.8166372995    0.8462355786    0.0116815675
H        0.9133676988   -3.0123911524    0.0032563502
H        3.6731808151   -0.3070613126    6.8748343732
H        2.7412004586    0.8809649384    2.4861585487
H        0.8492370454   -2.9910392283    2.4765693575
H        3.7688370215   -0.3207567778    4.3983249180
H        1.5988187462   -1.0323078854    8.0433894845
H       -0.2880366409   -1.7632571671    4.2634459558
22   

C        1.9239985986   -1.0574218772   -0.1569317292
C        1.4077222480   -2.1643799471    0.5207300801
C        2.3712398733    0.0508022101    0.5661463767
C        0.6237509148   -1.7473949210    6.2200375143
C        1.3402876313   -2.1631384872    1.9190909397
C        2.3038770534    0.0506265509    1.9644159859
C        0.6905682263   -1.7505492517    4.8223177582
C        1.5760798882   -1.0456482780    6.9636232884
C        2.6567439732   -0.3549027116    4.9160460975
C        1.7917720734   -1.0585517889    2.6638525530
C        1.7058053476   -1.0507126246    4.1459949538
C        2.5968405650   -0.3472826687    6.3143274734
Cl       3.7912892647    0.5208864383    7.2390696863
H        1.9761440295   -1.0577124571   -1.2420574010
H        1.0610800898   -3.0289382419   -0.0381412228
H        2.7670814626    0.9163795571    0.0425980535
H       -0.1706361319   -2.2877284681    6.7272244944
H        0.9504766148   -3.0433318917    2.4196607712
H        2.6374047645    0.9341492824    2.4989614217
H       -0.0706765058   -2.2883848377    4.2666365279
H        1.5284374784   -1.0406398954    8.0485330045
H        3.4721085379    0.1759626312    4.4369635885
22   

C        1.9156440455   -1.0542976593   -0.1662575979
C        1.2709781183   -2.0915270194    0.5077697967
C        2.4950774554   -0.0158039206    0.5625104396
C        0.7185243252   -1.8558911601    6.2391497434
C        1.2098223391   -2.0926732371    1.9065387034
C        2.4336013032   -0.0179132578    1.9609020343
C        0.7809404749   -1.8549160517    4.8411146162
C        1.5880793842   -1.0544032100    6.9797542164
C        2.5811411183   -0.2583025151    4.9273793133
C        1.8001875817   -1.0645926496    2.6658985752
C        1.7043515320   -1.0469758786    4.1511526046
C        2.5246967765   -0.2539980824    6.3257402605
Cl       3.6247257920    0.7363879331    7.2451337073
H        1.9627823707   -1.0532315145   -1.2516169998
H        0.8175685545   -2.9025497218   -0.0549556430
H        2.9887255391    0.8006287920    0.0430809986
H       -0.0102992001   -2.4793370703    6.7494622347
H        0.7135397843   -2.9328581360    2.3769508884
H        2.8717584852    0.8285112678    2.4764715122
H        0.0704108536   -2.4803820373    4.3141090297
H        1.5429120719   -1.0524913312    8.0647838496
H        3.3463404174    0.3552199585    4.4682297711
22   

C        1.9066897614   -1.0512420846   -0.1814875754
C        1.1046496854   -1.9741638403    0.4866264867
C        2.6490889946   -0.1307510320    0.5549118132
C        0.8516739301   -1.9949098089    6.2463883542
C        1.0447041234   -1.9772421068    1.8855660477
C        2.5889504749   -0.1340584055    1.9532761386
C        0.9131400034   -1.9899804494    4.8482249835
C        1.5934333339   -1.0745799367    6.9849147108
C        2.4552891288   -0.1477294861    4.9289771497
C        1.7831880809   -1.0595884639    2.6581512216
C        1.7155819753   -1.0676806849    4.1487511403
C        2.3985610250   -0.1469638096    6.3273484728
Cl       3.3294168596    1.0075404060    7.2424803404
H        1.9528253805   -1.0493393704   -1.2668931114
H        0.5232280411   -2.6946606431   -0.0815955085
H        3.2768697142    0.5920529600    0.0415463941
H        0.2237883304   -2.7183099073    6.7590148504
H        0.3992692565   -2.7247019202    2.3263737830
H        3.1928554972    0.6098623488    2.4556234559
H        0.3093224587   -2.7342625158    4.3468612812
H        1.5479747004   -1.0756903952    8.0699381751
H        3.0998822165    0.5991728283    4.4867138077
22   

C        1.9088807234   -1.0314831958   -0.1735918184
C        0.9646765214   -1.8224467878    0.4811012919
C        2.7932610984   -0.2547466687    0.5746718955
C        0.9965261232   -2.1238575815    6.2350906404
C        0.9020282450   -1.8333067174    1.8797617453
C        2.7297184441   -0.2660482992    1.9729325849
C        1.0591569178   -2.1112358131    4.8371189776
C        1.5965069758   -1.1024144130    6.9724765474
C        2.3147992860   -0.0581866355    4.9167786941
C        1.7727584943   -1.0465709340    2.6575503920
C        1.7304121220   -1.0857127287    4.1448657394
C        2.2562172430   -0.0640216896    6.3150452817
Cl       2.9928659150    1.2234307961    7.2293845659
H        1.9577455919   -1.0234081833   -1.2588460553
H        0.2738188776   -2.4296639675   -0.0968289103
H        3.5382733194    0.3546403243    0.0710252789
H        0.4825452635   -2.9319185784    6.7480714194
H        0.1365867828   -2.4511884511    2.3334194987
H        3.4604053405    0.3305946409    2.5061847065
H        0.5938162971   -2.9380281367    4.3139984046
H        1.5498666845   -1.1085172943    8.0574287485
H        2.8100501090    0.7856810671    4.4526752629
22   

C        1.9067438452   -1.0300702022   -0.1593742436
C        0.8725366902   -1.7061707246    0.4920847247
C        2.8818218031   -0.3680845155    0.5902993261
C        1.1245264639   -2.1862753197    6.2345777779
C        0.8132419300   -1.7187954840    1.8907538739
C        2.8211112739   -0.3809036373    1.9888180630
C        1.1819078091   -2.1745217916    4.8364758645
C        1.6113104348   -1.0979222305    6.9631944348
C        2.2089704871    0.0081459176    4.8999767463
C        1.7828766061   -1.0524508686    2.6617666373
C        1.7291517812   -1.0788016672    4.1451978944
C        2.1547367587    0.0039509519    6.2984905466
Cl       2.7538906029    1.3665741197    7.2039518688
H        1.9534571322   -1.0203288822   -1.2447036362
H        0.1111731551   -2.2201875424   -0.0876332045
H        3.6915531499    0.1531071176    0.0875957242
H        0.7046367445   -3.0431313285    6.7539401313
H       -0.0107303108   -2.2374944365    2.3695900775
H        3.6046649904    0.1226115534    2.5456905981
H        0.8135445912   -3.0389460154    4.2936855336
H        1.5685523873   -1.1024613184    8.0483081864
H        2.6144683327    0.8850537351    4.4072665557
22   

C        1.9148331118   -1.0233587761   -0.1566801810
C        0.8042226730   -1.5818670589    0.4829403483
C        2.9589446389   -0.4878016406    0.6033781502
C        1.2366794471   -2.2518681866    6.2268471816
C        0.7396445688   -1.6059214805    1.8811715718
C        2.8925771421   -0.5122087677    2.0016254638
C        1.2895635568   -2.2390873059    4.8286056275
C        1.6090491866   -1.1140092820    6.9497163974
C        2.0867038857    0.0414970036    4.8814632787
C        1.7849248260   -1.0753860717    2.6565474456
C        1.7099504169   -1.0893605757    4.1386937575
C        2.0364598519    0.0366800903    6.2802072933
Cl       2.5013350343    1.4541907297    7.1800899531
H        1.9657813883   -1.0041999354   -1.2416915342
H       -0.0107441857   -1.9942208552   -0.1050618384
H        3.8233530144   -0.0537693332    0.1090021809
H        0.9102298171   -3.1460498733    6.7503921930
H       -0.1334263020   -2.0303708366    2.3675037595
H        3.7142198536   -0.1010283361    2.5803697591
H        1.0120406428   -3.1305844828    4.2741609912
H        1.5698547507   -1.1189198278    8.0349595437
H        2.4111825805    0.9424917385    4.3709228239
22   

C        1.9206982813   -1.0215319595   -0.1551111900
C        0.7461783776   -1.4430884017    0.4766870734
C        3.0222740256   -0.6282503436    0.6119907727
C        1.3713732378   -2.2834174836    6.2362282950
C        0.6758037405   -1.4740365758    1.8745322644
C        2.9496755575   -0.6598388125    2.0098414754
C        1.4162901045   -2.2798422720    4.8376390444
C        1.6161309705   -1.1020049847    6.9447877242
C        1.9521564581    0.0774595217    4.8619042988
C        1.7803512185   -1.0916433592    2.6528279085
C        1.6962753894   -1.0956750306    4.1372228300
C        1.9094781729    0.0825681654    6.2609724994
Cl       2.2213968693    1.5518275585    7.1436089672
H        1.9762048449   -0.9964825539   -1.2397771731
H       -0.1128232909   -1.7429907161   -0.1167172933
H        3.9343670978   -0.2973166420    0.1235730431
H        1.1506314903   -3.2030359171    6.7708374452
H       -0.2409777990   -1.7914954156    2.3625712928
H        3.8074764283   -0.3535295494    2.6014561368
H        1.2378700132   -3.1988156262    4.2868628253
H        1.5831793509   -1.0994124445    8.0302452746
H        2.1799737507    0.9975976167    4.3329683268
22   

C        1.9192674360   -1.0250329346   -0.1524263554
C        0.6987456046   -1.2834853419    0.4806388200
C        3.0676761062   -0.7967621084    0.6134054237
C        1.5297347529   -2.3117807185    6.2465354087
C        0.6289114095   -1.3160455670    1.8785134933
C        2.9950176606   -0.8299368119    2.0112568684
C        1.5732877159   -2.3113380562    4.8478669039
C        1.6226724460   -1.1039192618    6.9472270444
C        1.8045148609    0.0953266961    4.8563782558
C        1.7783251658   -1.0974185842    2.6530004908
C        1.7017855179   -1.1057792903    4.1420287539
C        1.7621383885    0.1042938904    6.2554909056
Cl       1.8846814523    1.6069852707    7.1283617560
H        1.9746025647   -0.9986958908   -1.2370704120
H       -0.1953827550   -1.4561279127   -0.1115540021
H        4.0157249211   -0.5922353921    0.1241747392
H        1.4267052064   -3.2484958536    6.7870783887
H       -0.3197953392   -1.5094292941    2.3706307227
H        3.8862779547   -0.6497347242    2.6053610839
H        1.5090692392   -3.2471148354    4.3001056228
H        1.5900363122   -1.0984912224    8.0326835740
H        1.9153680639    1.0314084975    4.3178791336
22   

C        1.9066783460   -1.0356911406   -0.1520775578
C        0.6687636588   -1.1029636885    0.4965345600
C        3.0863557916   -0.9889250579    0.5989535566
C        1.7064707564   -2.3235023759    6.2452077104
C        0.6122555796   -1.1235409782    1.8952476467
C        3.0269456045   -1.0096382543    1.9976995074
C        1.7616368403   -2.3127821488    4.8469766542
C        1.6219412954   -1.1165076097    6.9487184294
C        1.6479341505    0.1025515466    4.8614924589
C        1.7912002247   -1.0771869095    2.6538733323
C        1.7327031871   -1.0985959668    4.1458371986
C        1.5923064008    0.1013520342    6.2602018787
Cl       1.4870808631    1.6033678367    7.1364863105
H        1.9518029813   -1.0193161533   -1.2373898113
H       -0.2485465319   -1.1387932378   -0.0841815338
H        4.0485167461   -0.9360989036    0.0975347982
H        1.7292482192   -3.2671150744    6.7830871747
H       -0.3479404942   -1.1751177131    2.4002994367
H        3.9421800130   -0.9727445235    2.5814124605
H        1.8273113140   -3.2465225965    4.2958792933
H        1.5788646415   -1.1189558282    8.0338219115
H        1.6251473492    1.0456661089    4.3243209459
22   

C        1.8952456687   -1.0343633104   -0.1523753463
C        0.6718856482   -0.9045609376    0.5139937345
C        3.0785249248   -1.1721085656    0.5815561463
C        1.8839049456   -2.3111930932    6.2347644882
C        0.6335979653   -0.9101546355    1.9134280494
C        3.0377566965   -1.1773405680    1.9811260955
C        1.9557371563   -2.2794311863    4.8376350007
C        1.6203239458   -1.1350753079    6.9461785741
C        1.4988231849    0.0953948916    4.8689439533
C        1.8176335017   -1.0384836922    2.6556548496
C        1.7730643706   -1.0726723899    4.1455982304
C        1.4249508785    0.0724465797    6.2666173394
Cl       1.0895586785    1.5344827465    7.1525981095
H        1.9260040394   -1.0305626190   -1.2383071984
H       -0.2486018588   -0.8017478067   -0.0535580497
H        4.0290054094   -1.2760306491    0.0660551937
H        2.0296004456   -3.2478020374    6.7655875060
H       -0.3165103854   -0.8163215760    2.4313504384
H        3.9559619456   -1.2868169796    2.5508246929
H        2.1520451840   -3.1911141671    4.2807017580
H        1.5627594331   -1.1542748316    8.0304432652
H        1.3444001252    1.0303094992    4.3392565193
22   

C        1.8884041020   -1.0376219720   -0.1529689389
C        0.6997981322   -0.7361890141    0.5200117726
C        3.0439425755   -1.3410574592    0.5746732232
C        2.0399522921   -2.2666778156    6.2409709840
C        0.6688184309   -0.7352966724    1.9196055650
C        3.0108437270   -1.3396836430    1.9744144840
C        2.1151954163   -2.2309898005    4.8441296267
C        1.6241933183   -1.1319003767    6.9462049641
C        1.3575994667    0.0652586354    4.8632905606
C        1.8270618177   -1.0272932529    2.6580241702
C        1.7857186150   -1.0595287318    4.1437948490
C        1.2792649824    0.0377310325    6.2605666694
Cl       0.7536848036    1.4476907597    7.1385362091
H        1.9131796600   -1.0390233663   -1.2390604424
H       -0.2004535960   -0.5061940841   -0.0426959100
H        3.9672150114   -1.5785228519    0.0539790818
H        2.2998628621   -3.1754842946    6.7764607379
H       -0.2585156684   -0.5118916952    2.4390065523
H        3.9097140396   -1.5762185787    2.5361503639
H        2.4256390678   -3.1152294048    4.2950874827
H        1.5631901654   -1.1546507408    8.0302129078
H        1.0886950314    0.9730051123    4.3322489413
22   

C        1.8896769271   -1.0422998364   -0.1568787794
C        0.7456887500   -0.6022764305    0.5155986381
C        2.9934831239   -1.4960064262    0.5714636543
C        2.1733416174   -2.2324643999    6.2549062711
C        0.7071759389   -0.6144591702    1.9149359956
C        2.9531179311   -1.5079665883    1.9708842416
C        2.2346862575   -2.2058628176    4.8571913082
C        1.6387003155   -1.1435480702    6.9508944355
C        1.2273487847   -0.0092910448    4.8568201144
C        1.8123664720   -1.0628142956    2.6584295290
C        1.7677294487   -1.0902956136    4.1416390383
C        1.1625827823   -0.0282542793    6.2548443658
Cl       0.4950836918    1.3279269690    7.1211242972
H        1.9202248635   -1.0328735356   -1.2427842667
H       -0.1153026793   -0.2537676958   -0.0476391011
H        3.8838216199   -1.8377467798    0.0514116485
H        2.5370620489   -3.0998294892    6.7986134584
H       -0.1919332725   -0.2829544344    2.4256449032
H        3.8195605161   -1.8544700224    2.5259737824
H        2.6378744236   -3.0610536558    4.3231117534
H        1.5887043097   -1.1595054221    8.0355878812
H        0.8631034267    0.8642326956    4.3257491542
22   

C        1.8912028837   -1.0397550371   -0.1596785003
C        0.8004870793   -0.4813501911    0.5107397063
C        2.9272478274   -1.6258540238    0.5711044764
C        2.2884848321   -2.1603334852    6.2804746925
C        0.7459671063   -0.5101844849    1.9093087604
C        2.8711026032   -1.6545773849    1.9696349646
C        2.3269167383   -2.1565655716    4.8817038118
C        1.6531982182   -1.1209384339    6.9648801857
C        1.0986372738   -0.0795040608    4.8563782805
C        1.7773603220   -1.1009347000    2.6615884441
C        1.7289932977   -1.1180829508    4.1453811169
C        1.0564481836   -0.0760713114    6.2553311956
Cl       0.2718854016    1.2261952603    7.1063034389
H        1.9342332388   -1.0167399540   -1.2449604460
H       -0.0083652360   -0.0265068009   -0.0539703733
H        3.7804952845   -2.0549531959    0.0536115021
H        2.7496657203   -2.9731099859    6.8345091477
H       -0.1216776447   -0.0839334938    2.4023367196
H        3.7005465615   -2.0959838720    2.5122739605
H        2.8109281423   -2.9834447102    4.3721739689
H        1.6213029535   -1.1193395152    8.0503763271
H        0.6480290924    0.7548896442    4.3302409342
22   

C        1.8980532536   -1.0331307161   -0.1731795650
C        0.8839377947   -0.3551806141    0.5031448848
C        2.8495397810   -1.7490222020    0.5530043553
C        2.4093029150   -2.0737045565    6.2947489124
C        0.8195491796   -0.3959394278    1.9010808049
C        2.7840349373   -1.7892782543    1.9507150542
C        2.4309130914   -2.0844159633    4.8956159343
C        1.6731217592   -1.1039916196    6.9762151982
C        0.9868921355   -0.1583877960    4.8624002862
C        1.7593974203   -1.1220681199    2.6572113154
C        1.7116182910   -1.1353078037    4.1449256150
C        0.9605246010   -0.1411369364    6.2616280221
Cl       0.0522228574    1.0823467539    7.1068200623
H        1.9483916617   -1.0008414051   -1.2579144622
H        0.1398794513    0.2038809515   -0.0571119057
H        3.6478533647   -2.2703470009    0.0325132847
H        2.9640300214   -2.8234061345    6.8519825647
H       -0.0010173947    0.1319936224    2.3722055172
H        3.5657082097   -2.3344483409    2.4659449814
H        3.0013192878   -2.8699847062    4.4143486883
H        1.6540047157   -1.0917495564    8.0619490189
H        0.4427103964    0.6293879147    4.3567424508
22   

C        1.8784171821   -1.0458569669   -0.1862066308
C        1.0060271831   -0.2077082496    0.5047600919
C        2.7142781354   -1.9009918031    0.5282931363
C        2.5507678342   -1.9574362134    6.3014593358
C        0.9693463852   -0.2243208145    1.9043124404
C        2.6769274349   -1.9169263802    1.9274394232
C        2.5905390630   -1.9439128906    4.9026564373
C        1.6757431031   -1.1164500786    6.9865284093
C        0.8840314100   -0.2522162893    4.8756588384
C        1.8012636599   -1.0769674580    2.6562394865
C        1.7601218999   -1.0926428854    4.1478339143
C        0.8386673865   -0.2601985350    6.2744908938
Cl      -0.2587672358    0.7949710711    7.1225291422
H        1.9065146276   -1.0326063463   -1.2721484270
H        0.3512007851    0.4618654305   -0.0456729964
H        3.3973493830   -2.5576184925   -0.0030176336
H        3.2037849940   -2.6253843366    6.8561989555
H        0.2653820451    0.4556820537    2.3649123718
H        3.3550120768   -2.6070209040    2.4112649921
H        3.2944073301   -2.6238054776    4.4415912731
H        1.6420115692   -1.1241000475    8.0719522411
H        0.2064463581    0.4373913814    4.3918091143
