22   

C        1.8654118870   -1.0660909986   -0.1744317816
C        1.1522258325   -0.0843884641    0.5133809824
C        2.5628486919   -2.0384073614    0.5420546382
C        2.6657757216   -1.8148234789    6.3045494058
C        1.1394482465   -0.0730449816    1.9132880421
C        2.5495652126   -2.0259441557    1.9417600290
C        2.7295918291   -1.7829406733    4.9070282501
C        1.6636552164   -1.1135362050    6.9758558806
C        0.7918049496   -0.3553006672    4.8549482562
C        1.8458659547   -1.0347861920    2.6605102600
C        1.8023724922   -1.0437055815    4.1483916348
C        0.7214038310   -0.3824893276    6.2524946571
Cl      -0.5422084766    0.4823618383    7.0841138044
H        1.8746696371   -1.0752738311   -1.2607357565
H        0.6073066113    0.6756747216   -0.0392738434
H        3.1114708398   -2.8117661575    0.0120310491
H        3.3994024508   -2.3839478087    6.8686179489
H        0.5858665022    0.7243767881    2.3946061281
H        3.0826848239   -2.8219939303    2.4475006226
H        3.5384773490   -2.3277995722    4.4348708167
H        1.6101836444   -1.1359648038    8.0602778570
H        0.0182906172    0.2009937447    4.3405299120
22   

C        1.8817451372   -1.0657811126   -0.1571826801
C        1.2826693492   -0.0051059632    0.5261875030
C        2.4482281237   -2.1209317095    0.5616141761
C        2.7324626871   -1.6791318210    6.3070251574
C        1.2513589074    0.0003645067    1.9257567691
C        2.4167673847   -2.1137956835    1.9611917059
C        2.7884021354   -1.6678720082    4.9088814893
C        1.6576280444   -1.0792115662    6.9682458323
C        0.6999761904   -0.4606606420    4.8379388345
C        1.8215456537   -1.0507702391    2.6664203553
C        1.7750222552   -1.0547873246    4.1503950299
C        0.6368226659   -0.4682754422    6.2360808700
Cl      -0.7093881777    0.2722290002    7.0576378894
H        1.9054130088   -1.0707756147   -1.2432910196
H        0.8428506106    0.8184824890   -0.0290447951
H        2.9088335552   -2.9510385753    0.0336700576
H        3.5263903580   -2.1513809818    6.8787829406
H        0.7943966554    0.8456781172    2.4299465806
H        2.8442666966   -2.9573878327    2.4930439775
H        3.6417564820   -2.1249654796    4.4185077096
H        1.6096844378   -1.0859486835    8.0531315034
H       -0.1165355358   -0.0001390486    4.2926730273
22   

C        1.8897134666   -1.0596664245   -0.1503391367
C        1.4065266966    0.0545578416    0.5422180122
C        2.3238425083   -2.1843941921    0.5576542727
C        2.7969500504   -1.5620472236    6.2942062327
C        1.3560480750    0.0424516740    1.9411845361
C        2.2730899942   -2.1946886774    1.9567399018
C        2.8332146591   -1.5736498270    4.8954165028
C        1.6720167698   -1.0636532413    6.9590704337
C        0.6272971894   -0.5893239137    4.8319910310
C        1.7841173881   -1.0842979898    2.6639067469
C        1.7452959146   -1.0927938592    4.1473274417
C        0.5833067433   -0.5743054047    6.2308788915
Cl      -0.8177394384    0.0481648183    7.0584147501
H        1.9289508537   -1.0509047367   -1.2359702405
H        1.0731126602    0.9317395433   -0.0049440786
H        2.6990842313   -3.0516648907    0.0219491358
H        3.6434982735   -1.9361658578    6.8630873257
H        0.9914973051    0.9190079606    2.4683164192
H        2.6050292499   -3.0769860402    2.4955172353
H        3.7160011543   -1.9487908134    4.3863890044
H        1.6391619399   -1.0522491322    8.0444766723
H       -0.2259854157   -0.2151730890    4.2755081094
22   

C        1.8855083899   -1.0596047994   -0.1460420716
C        1.5405686450    0.1011454190    0.5541188945
C        2.1698127465   -2.2372102786    0.5533974723
C        2.8303650745   -1.4267490786    6.2874853118
C        1.4770951358    0.0822081567    1.9524893762
C        2.1058309731   -2.2540360152    1.9519650833
C        2.8579240961   -1.4524009743    4.8886683277
C        1.6604418608   -1.0480186464    6.9551465793
C        0.5543650526   -0.7193772936    4.8311527374
C        1.7495135613   -1.0986058406    2.6620860418
C        1.7150827967   -1.1100584424    4.1483505031
C        0.5185943487   -0.6907297191    6.2301414863
Cl      -0.9352221928   -0.2112142685    7.0617294007
H        1.9354632025   -1.0456423409   -1.2311778708
H        1.3252855164    1.0185042224    0.0136597641
H        2.4409744424   -3.1388891905    0.0117406635
H        3.7173676314   -1.6963662128    6.8538456115
H        1.2199643568    0.9881244235    2.4936316178
H        2.3276570413   -3.1699216112    2.4917896224
H        3.7693698586   -1.7340220898    4.3693823199
H        1.6340815589   -1.0255561420    8.0405557189
H       -0.3318884544   -0.4409186874    4.2696066896
22   

C        1.8867688313   -1.0679395365   -0.1450569338
C        1.7113640044    0.1298652710    0.5563512646
C        2.0049113027   -2.2746451293    0.5532628956
C        2.8667302590   -1.2676091614    6.2912661627
C        1.6518194828    0.1191497109    1.9550143484
C        1.9449533617   -2.2828233027    1.9521273312
C        2.9005042663   -1.2904607791    4.8925173744
C        1.6558375419   -1.0417379673    6.9557740290
C        0.5214062289   -0.8600979740    4.8288795795
C        1.7601612421   -1.0886231026    2.6611787249
C        1.7249479228   -1.0963011851    4.1517417739
C        0.4787517476   -0.8353057480    6.2278145530
Cl      -1.0266968906   -0.5468256630    7.0557075266
H        1.9335277188   -1.0606871448   -1.2304001542
H        1.6236361392    1.0685306774    0.0167273513
H        2.1441655489   -3.2053437818    0.0107114750
H        3.7794911016   -1.4220111889    6.8598276711
H        1.5225437886    1.0494942332    2.5004496838
H        2.0392088388   -3.2192093266    2.4942906748
H        3.8393014986   -1.4573401495    4.3722401142
H        1.6241534948   -1.0222412707    8.0410977819
H       -0.3898110369   -0.6969843202    4.2618173441
22   

C        1.8770478988   -1.0790290973   -0.1465643468
C        1.9016239394    0.1358288175    0.5471119671
C        1.8125647875   -2.2849798730    0.5601396542
C        2.8893632211   -1.0907735412    6.3028693051
C        1.8618624204    0.1430628137    1.9465281020
C        1.7729046858   -2.2749138912    1.9597074175
C        2.9384748042   -1.0969406571    4.9043882578
C        1.6527462446   -1.0437505612    6.9567087085
C        0.5233633319   -1.0093516319    4.8197192310
C        1.7974820640   -1.0625048667    2.6608618016
C        1.7546367197   -1.0562277842    4.1535174278
C        0.4647954353   -1.0028531606    6.2182965143
Cl      -1.0740684951   -0.9443515815    7.0328368213
H        1.9075195255   -1.0859042222   -1.2324888016
H        1.9510867197    1.0734274887    0.0008188325
H        1.7928036276   -3.2292925316    0.0236256818
H        3.8095818508   -1.1224348752    6.8794395357
H        1.8802448388    1.0852815421    2.4865289495
H        1.7222299197   -3.2105621980    2.5090050041
H        3.8954001591   -1.1333551395    4.3916878029
H        1.6087908294   -1.0387553020    8.0417682468
H       -0.3963963217   -0.9776985225    4.2438936531
22   

C        1.8731369312   -1.0909388311   -0.1472262913
C        2.0889048987    0.1088116386    0.5392730454
C        1.6243290326   -2.2681098188    0.5667834450
C        2.8687708955   -0.9165678780    6.3128431990
C        2.0583118205    0.1291716269    1.9387864214
C        1.5943191439   -2.2449180424    1.9664020280
C        2.9311753123   -0.9102793640    4.9149019638
C        1.6320426424   -1.0465393839    6.9548325277
C        0.5293714563   -1.1658414614    4.8070943420
C        1.8187629009   -1.0492129978    2.6618444988
C        1.7598458739   -1.0256666352    4.1515139173
C        0.4575634269   -1.1734166492    6.2050126976
Cl      -1.0810104178   -1.3420716666    7.0046058597
H        1.8958154099   -1.1078967742   -1.2332310817
H        2.2773617144    1.0251403145   -0.0128043721
H        1.4528494663   -3.2001523139    0.0358730819
H        3.7792001648   -0.8234468221    6.8982350843
H        2.2185227832    1.0616581261    2.4720990461
H        1.3981915608   -3.1585252648    2.5201467861
H        3.8896242136   -0.8171913858    4.4123534693
H        1.5778622596   -1.0526417658    8.0394235200
H       -0.3804250700   -1.2668498018    4.2234964943
22   

C        1.8694899843   -1.0925251218   -0.1504214521
C        2.2486669863    0.0630305687    0.5404303485
C        1.4553663295   -2.2245679614    0.5591921442
C        2.8387930622   -0.7581387075    6.3065432115
C        2.2164639975    0.0840298570    1.9398600882
C        1.4237839583   -2.2013164668    1.9587351670
C        2.8980574286   -0.7532402354    4.9084903479
C        1.6299327901   -1.0399289926    6.9522647163
C        0.5484456564   -1.3134686219    4.8079694856
C        1.8127546079   -1.0512419071    2.6610595672
C        1.7496278639   -1.0200745335    4.1461833151
C        0.4805134197   -1.3207079899    6.2060282734
Cl      -1.0228576276   -1.6787251402    7.0102438951
H        1.8934552427   -1.1097362556   -1.2363951641
H        2.5646237000    0.9455618251   -0.0084447413
H        1.1572494217   -3.1220610949    0.0247620827
H        3.7310323210   -0.5472813309    6.8893632645
H        2.5010948304    0.9860798197    2.4734715003
H        1.1015049466   -3.0826562888    2.5055729385
H        3.8385012087   -0.5460172822    4.4061712785
H        1.5785994889   -1.0456915538    8.0369964888
H       -0.3444822659   -1.5316003312    4.2305385033
22   

C        1.8715424412   -1.0859477756   -0.1512515531
C        2.3880292931    0.0066957238    0.5515154486
C        1.3148600277   -2.1618551512    0.5467509530
C        2.8069732195   -0.6236052262    6.3006282467
C        2.3490331427    0.0215750458    1.9508241655
C        1.2761918268   -2.1451813289    1.9461498143
C        2.8568930247   -0.6267729449    4.9022175546
C        1.6425383659   -1.0328784381    6.9583087706
C        0.5855665259   -1.4481493600    4.8249215329
C        1.7967097633   -1.0559966020    2.6642813309
C        1.7438329276   -1.0338390520    4.1472658351
C        0.5277222443   -1.4477019698    6.2233734852
Cl      -0.9228402846   -1.9585167381    7.0420160452
H        1.9013271801   -1.0983358059   -1.2371483852
H        2.8166387991    0.8462346338    0.0116815337
H        0.9133784651   -3.0123967194    0.0032569638
H        3.6731806810   -0.3070613789    6.8748344343
H        2.7411981970    0.8809660304    2.4861584594
H        0.8492443502   -2.9910427747    2.4765700308
H        3.7688369748   -0.3207566163    4.3983249273
H        1.5988186388   -1.0323082977    8.0433893931
H       -0.2880363092   -1.7632578249    4.2634455544
22   

C        1.9239931024   -1.0574192496   -0.1569318797
C        1.4077200571   -2.1643788546    0.5207299748
C        2.3712326016    0.0508055667    0.5661462402
C        0.6237509344   -1.7473946721    6.2200375167
C        1.3402876313   -2.1631384872    1.9190909397
C        2.3038718307    0.0506288764    1.9644159498
C        0.6905682263   -1.7505492517    4.8223177582
C        1.5760798716   -1.0456477918    6.9636231546
C        2.6567438699   -0.3549024142    4.9160458471
C        1.7917720734   -1.0585517889    2.6638525530
C        1.7058053476   -1.0507126246    4.1459949538
C        2.5968404892   -0.3472821652    6.3143272213
Cl       3.7912890946    0.5208872260    7.2390692827
H        1.9761370162   -1.0577090691   -1.2420576244
H        1.0610786817   -3.0289374282   -0.0381413807
H        2.7670711687    0.9163842595    0.0425978575
H       -0.1706360542   -2.2877282052    6.7272246036
H        0.9504787733   -3.0433327740    2.4196609192
H        2.6373977454    0.9341521293    2.4989616694
H       -0.0706763869   -2.2883849990    4.2666365101
H        1.5284374680   -1.0406392225    8.0485328711
H        3.4721081904    0.1759629760    4.4369629367
22   

C        1.9156404051   -1.0542953425   -0.1662576748
C        1.2709766734   -2.0915260759    0.5077697335
C        2.4950725733   -0.0158009066    0.5625103844
C        0.7185244319   -1.8558910763    6.2391497491
C        1.2098223391   -2.0926732371    1.9065387034
C        2.4335977438   -0.0179111423    1.9609020377
C        0.7809404749   -1.8549160517    4.8411146162
C        1.5880795391   -1.0544030451    6.9797541141
C        2.5811411923   -0.2583024888    4.9273791202
C        1.8001875817   -1.0645926496    2.6658985752
C        1.7043515320   -1.0469758786    4.1511526046
C        2.5246969189   -0.2539979505    6.3257400655
Cl       3.6247259936    0.7363881079    7.2451333868
H        1.9627777671   -1.0532285483   -1.2516171191
H        0.8175676705   -2.9025490731   -0.0549557381
H        2.9887186025    0.8006330376    0.0430809254
H       -0.0102990427   -2.4793369712    6.7494623279
H        0.7135412978   -2.9328589652    2.3769510283
H        2.8717535256    0.8285139716    2.4764717775
H        0.0704108747   -2.4803820323    4.3141089784
H        1.5429122828   -1.0524910900    8.0647837495
H        3.3463404327    0.3552198375    4.4682292399
22   

C        1.9066897490   -1.0512420738   -0.1814875682
C        1.1046496756   -1.9741638360    0.4866264878
C        2.6490889853   -0.1307510231    0.5549118259
C        0.8516739258   -1.9949098259    6.2463883525
C        1.0447041234   -1.9772421068    1.8855660477
C        2.5889504787   -0.1340584008    1.9532761505
C        0.9131400034   -1.9899804494    4.8482249835
C        1.5934333413   -1.0745799672    6.9849147163
C        2.4552891349   -0.1477294959    4.9289771555
C        1.7831880809   -1.0595884639    2.6581512216
C        1.7155819753   -1.0676806849    4.1487511403
C        2.3985610383   -0.1469638389    6.3273484814
Cl       3.3294168948    1.0075403581    7.2424803515
H        1.9528253607   -1.0493393509   -1.2668931047
H        0.5232280261   -2.6946606395   -0.0815955056
H        3.2768696961    0.5920529764    0.0415464090
H        0.2237883172   -2.7183099322    6.7590148305
H        0.3992692507   -2.7247019202    2.3263737757
H        3.1928555119    0.6098623473    2.4556234729
H        0.3093224539   -2.7342625121    4.3468612807
H        1.5479747124   -1.0756904367    8.0699381814
H        3.0998822261    0.5991728181    4.4867138186
22   

C        1.9088836593   -1.0314863913   -0.1735916263
C        0.9646777166   -1.8224480485    0.4811013352
C        2.7932649298   -0.2547509663    0.5746721986
C        0.9965260658   -2.1238574105    6.2350906370
C        0.9020282450   -1.8333067174    1.8797617453
C        2.7297211513   -0.2660514446    1.9729328491
C        1.0591569178   -2.1112358131    4.8371189776
C        1.5965068378   -1.1024141007    6.9724764452
C        2.3147992090   -0.0581865079    4.9167785087
C        1.7727584943   -1.0465709340    2.6575503920
C        1.7304121220   -1.0857127287    4.1448657394
C        2.2562171033   -0.0640214060    6.3150450952
Cl       2.9928656486    1.2234312195    7.2293842713
H        1.9577493362   -1.0234122258   -1.2588458346
H        0.2738196865   -2.4296647088   -0.0968289503
H        3.5382787220    0.3546342105    0.0710257105
H        0.4825452240   -2.9319183697    6.7480714863
H        0.1365856925   -2.4511870917    2.3334195368
H        3.4604088537    0.3305902175    2.5061853346
H        0.5938163891   -2.9380281585    4.3139983393
H        1.5498664777   -1.1085168515    8.0574286446
H        2.8100499154    0.7856811123    4.4526747517
22   

C        1.9067472471   -1.0300749599   -0.1593740320
C        0.8725380830   -1.7061726033    0.4920847681
C        2.8818262476   -0.3680909122    0.5902996617
C        1.1245266384   -2.1862752517    6.2345777860
C        0.8132419300   -1.7187954840    1.8907538739
C        2.8211144149   -0.3809082882    1.9888183601
C        1.1819078091   -2.1745217916    4.8364758645
C        1.6113108868   -1.0979221944    6.9631943375
C        2.2089709327    0.0081457874    4.8999765462
C        1.7828766061   -1.0524508686    2.6617666373
C        1.7291517812   -1.0788016672    4.1451978944
C        2.1547373977    0.0039508661    6.2984903566
Cl       2.7538917534    1.3665738733    7.2039515759
H        1.9534614793   -1.0203349075   -1.2447033963
H        0.1111741266   -2.2201886928   -0.0876332544
H        3.6915594068    0.1530980336    0.0875961911
H        0.7046368454   -3.0431311707    6.7539402290
H       -0.0107315191   -2.2374925336    2.3695900783
H        3.6046689428    0.1226052615    2.5456912649
H        0.8135444024   -3.0389459257    4.2936855079
H        1.5685529508   -1.1024612402    8.0483080939
H        2.6144690157    0.8850533164    4.4072660050
22   

C        1.9148363024   -1.0233645800   -0.1566800202
C        0.8042240132   -1.5818693934    0.4829403694
C        2.9589487366   -0.4878093045    0.6033784110
C        1.2366795989   -2.2518681177    6.2268471916
C        0.7396445688   -1.6059214805    1.8811715718
C        2.8925800123   -0.5122142486    2.0016257046
C        1.2895635568   -2.2390873059    4.8286056275
C        1.6090495812   -1.1140092195    6.9497163190
C        2.0867042780    0.0414969233    4.8814631141
C        1.7849248260   -1.0753860717    2.6565474456
C        1.7099504169   -1.0893605757    4.1386937575
C        2.0364603971    0.0366800688    6.2802071340
Cl       2.5013359749    1.4541906366    7.1800896990
H        1.9657854986   -1.0042073380   -1.2416913571
H       -0.0107431766   -1.9942223974   -0.1050619143
H        3.8233587731   -0.0537801980    0.1090025376
H        0.9102298967   -3.1460497351    6.7503922800
H       -0.1334274209   -2.0303685780    2.3675037294
H        3.7142234731   -0.1010356543    2.5803702511
H        1.0120404688   -3.1305844346    4.2741609968
H        1.5698552521   -1.1189197216    8.0349594703
H        2.4111832001    0.9424914503    4.3709224192
22   

C        1.9207003974   -1.0215374687   -0.1551111330
C        0.7461792698   -1.4430906358    0.4766870691
C        3.0222767461   -0.6282575734    0.6119908710
C        1.3713733161   -2.2834174633    6.2362282959
C        0.6758037405   -1.4740365758    1.8745322644
C        2.9496774731   -0.6598439463    2.0098415817
C        1.4162901045   -2.2798422720    4.8376390444
C        1.6161311062   -1.1020049535    6.9447876912
C        1.9521565363    0.0774595208    4.8619042237
C        1.7803512185   -1.0916433592    2.6528279085
C        1.6962753894   -1.0956750306    4.1372228300
C        1.9094782988    0.0825681878    6.2609724314
Cl       2.2213970415    1.5518275827    7.1436088738
H        1.9762075619   -0.9964895869   -1.2397771207
H       -0.1128226208   -1.7429922019   -0.1167173547
H        3.9343709264   -0.2973268912    0.1235731637
H        1.1506315864   -3.2030358888    6.7708374688
H       -0.2409785426   -1.7914932907    2.3625712807
H        3.8074788773   -0.3535363773    2.6014563487
H        1.2378699690   -3.1988156169    4.2868628223
H        1.5831795382   -1.0994123987    8.0302452449
H        2.1799738826    0.9975975494    4.3329681547
22   

C        1.9192682041   -1.0250364099   -0.1524263721
C        0.6987459269   -1.2834867482    0.4806388045
C        3.0676770898   -0.7967666461    0.6134054104
C        1.5297346998   -2.3117807021    6.2465354111
C        0.6289114095   -1.3160455670    1.8785134933
C        2.9950183556   -0.8299400231    2.0112568721
C        1.5732877159   -2.3113380562    4.8478669039
C        1.6226723047   -1.1039192306    6.9472270348
C        1.8045147215    0.0953267137    4.8563782371
C        1.7783251658   -1.0974185842    2.6530004908
C        1.7017855179   -1.1057792903    4.1420287539
C        1.7621381928    0.1042939225    6.2554908839
Cl       1.8846811224    1.6069853227    7.1283617216
H        1.9746035534   -0.9987003327   -1.2370704417
H       -0.1953825197   -1.4561288406   -0.1115540243
H        4.0157263094   -0.5922418212    0.1241747180
H        1.4267051853   -3.2484958298    6.7870784150
H       -0.3197956085   -1.5094279411    2.3706307358
H        3.8862788563   -0.6497390072    2.6053611018
H        1.5090692965   -3.2471148402    4.3001056234
H        1.5900361385   -1.0984911753    8.0326835630
H        1.9153678883    1.0314085152    4.3178791072
22   

C        1.9066783838   -1.0356912087   -0.1520775448
C        0.6687636883   -1.1029637223    0.4965345585
C        3.0863558260   -0.9889251293    0.5989535809
C        1.7064707414   -2.3235023802    6.2452077060
C        0.6122555796   -1.1235409782    1.8952476467
C        3.0269456138   -1.0096382924    1.9976995274
C        1.7616368403   -2.3127821488    4.8469766542
C        1.6219412300   -1.1165076143    6.9487184218
C        1.6479341270    0.1025515436    4.8614924551
C        1.7912002247   -1.0771869095    2.6538733323
C        1.7327031871   -1.0985959668    4.1458371986
C        1.5923063305    0.1013520292    6.2602018718
Cl       1.4870807290    1.6033678324    7.1364862992
H        1.9518030427   -1.0193162360   -1.2373897977
H       -0.2485464909   -1.1387932624   -0.0841815553
H        4.0485167874   -0.9360989980    0.0975348415
H        1.7292482213   -3.2671150794    6.7830871673
H       -0.3479405008   -1.1751176876    2.4002994267
H        3.9421800138   -0.9727445585    2.5814124997
H        1.8273113316   -3.2465225944    4.2958792919
H        1.5788645422   -1.1189558361    8.0338218991
H        1.6251473288    1.0456660973    4.3243209333
22   

C        1.8952461605   -1.0343595897   -0.1523752821
C        0.6718858696   -0.9045594043    0.5139937448
C        3.0785255299   -1.1721037425    0.5815562422
C        1.8839049674   -2.3111930960    6.2347644906
C        0.6335979653   -0.9101546355    1.9134280494
C        3.0377571143   -1.1773371690    1.9811261781
C        1.9557371563   -2.2794311863    4.8376350007
C        1.6203240160   -1.1350753004    6.9461785798
C        1.4988233196    0.0953949184    4.8689439642
C        1.8176335017   -1.0384836922    2.6556548496
C        1.7730643706   -1.0726723899    4.1455982304
C        1.4249510365    0.0724466081    6.2666173527
Cl       1.0895589968    1.5344828026    7.1525981412
H        1.9260046829   -1.0305578365   -1.2383071258
H       -0.2486016625   -0.8017467237   -0.0535580784
H        4.0290062540   -1.2760238110    0.0660553259
H        2.0296004539   -3.2478020451    6.7655875053
H       -0.3165105412   -0.8163229956    2.4313504101
H        3.9559624688   -1.2868124541    2.5508248209
H        2.1520451772   -3.1911141637    4.2807017502
H        1.5627594930   -1.1542748249    8.0304432703
H        1.3444003177    1.0303095397    4.3392565322
22   

C        1.8884057152   -1.0376162525   -0.1529688344
C        0.6997988188   -0.7361866864    0.5200117861
C        3.0439446357   -1.3410499676    0.5746733837
C        2.0399522747   -2.2666778164    6.2409709825
C        0.6688184309   -0.7352966724    1.9196055650
C        3.0108451807   -1.3396783273    1.9744146347
C        2.1151954163   -2.2309898005    4.8441296267
C        1.6241933042   -1.1319003692    6.9462049587
C        1.3575994931    0.0652586460    4.8632905525
C        1.8270618177   -1.0272932529    2.6580241702
C        1.7857186150   -1.0595287318    4.1437948490
C        1.2792650028    0.0377310479    6.2605666593
Cl       0.7536848649    1.4476907979    7.1385361859
H        1.9131817354   -1.0390160744   -1.2390603294
H       -0.2004530610   -0.5061925123   -0.0426959639
H        3.9672178961   -1.5785122550    0.0539792886
H        2.2998628462   -3.1754842905    6.7764607391
H       -0.2585162117   -0.5118938813    2.4390065249
H        3.9097158861   -1.5762115227    2.5361506212
H        2.4256391355   -3.1152293456    4.2950874227
H        1.5631901437   -1.1546507292    8.0302129011
H        1.0886950618    0.9730051150    4.3322489196
22   

C        1.8896795120   -1.0422938962   -0.1568785461
C        0.7456898362   -0.6022740485    0.5155986872
C        2.9934864407   -1.4959985614    0.5714640102
C        2.1733414387   -2.2324645123    6.2549062580
C        0.7071759389   -0.6144591702    1.9149359956
C        2.9531202596   -1.5079609506    1.9708845518
C        2.2346862575   -2.2058628176    4.8571913082
C        1.6386999637   -1.1435482625    6.9508944159
C        1.2273485689   -0.0092911537    4.8568201047
C        1.8123664720   -1.0628142956    2.6584295290
C        1.7677294487   -1.0902956136    4.1416390383
C        1.1625824319   -0.0282544632    6.2548443513
Cl       0.4950831709    1.3279266965    7.1211242875
H        1.9202281798   -1.0328659894   -1.2427839993
H       -0.1153018630   -0.2537661614   -0.0476391651
H        3.8838262649   -1.8377356575    0.0514121348
H        2.5370618895   -3.0998295987    6.7986134359
H       -0.1919341566   -0.2829567381    2.4256448490
H        3.8195634208   -1.8544625235    2.5259743639
H        2.6378746460   -3.0610534545    4.3231115855
H        1.5887038307   -1.1595056788    8.0355878544
H        0.8631031307    0.8642325417    4.3257491237
22   

C        1.8912059548   -1.0397498639   -0.1596781405
C        0.8004883675   -0.4813481288    0.5107397988
C        2.9272517547   -1.6258471496    0.5711050232
C        2.2884846815   -2.1603335788    6.2804746819
C        0.7459671063   -0.5101844849    1.9093087604
C        2.8711053271   -1.6545724289    1.9696354226
C        2.3269167383   -2.1565655716    4.8817038118
C        1.6531979030   -1.1209386071    6.9648801571
C        1.0986370370   -0.0795041990    4.8563782408
C        1.7773603220   -1.1009347000    2.6615884441
C        1.7289932977   -1.1180829508    4.1453811169
C        1.0564478215   -0.0760715135    6.2553311518
Cl       0.2718848138    1.2261949315    7.1063033691
H        1.9342371891   -1.0167333776   -1.2449600204
H       -0.0083642693   -0.0265054863   -0.0539704192
H        3.7805007879   -2.0549434564    0.0536122752
H        2.7496655818   -2.9731100675    6.8345091332
H       -0.1216786991   -0.0839355463    2.4023366556
H        3.7005499097   -2.0959772022    2.5122748853
H        2.8109283186   -2.9834444557    4.3721736863
H        1.6213025434   -1.1193397306    8.0503762951
H        0.6480287668    0.7548894182    4.3302408255
22   

C        1.8980558646   -1.0331273154   -0.1731792614
C        0.8839388689   -0.3551792676    0.5031449723
C        2.8495431659   -1.7490176449    0.5530048115
C        2.4093028210   -2.0737046358    6.2947489085
C        0.8195491796   -0.3959394278    1.9010808049
C        2.7840373174   -1.7892749275    1.9507154296
C        2.4309130914   -2.0844159633    4.8956159343
C        1.6731215538   -1.1039917555    6.9762151726
C        0.9868919777   -0.1583878999    4.8624002498
C        1.7593974203   -1.1220681199    2.6572113154
C        1.7116182910   -1.1353078037    4.1449256150
C        0.9605243719   -0.1411370829    6.2616279883
Cl       0.0522225264    1.0823465428    7.1068200222
H        1.9483950011   -1.0008370946   -1.2579140980
H        0.1398802025    0.2038817646   -0.0571119197
H        3.6478581293   -2.2703405205    0.0325139321
H        2.9640299196   -2.8234062152    6.8519825675
H       -0.0010183541    0.1319921877    2.3722054756
H        3.5657112684   -2.3344436965    2.4659457605
H        3.0013192708   -2.8699845941    4.4143484400
H        1.6540044397   -1.0917497269    8.0619489908
H        0.4427101916    0.6293877360    4.3567423371
22   

C        1.8784171883   -1.0458569723   -0.1862066302
C        1.0060271853   -0.2077082542    0.5047600903
C        2.7142781416   -1.9009918045    0.5282931401
C        2.5507678312   -1.9574362212    6.3014593354
C        0.9693463852   -0.2243208145    1.9043124404
C        2.6769274381   -1.9169263802    1.9274394271
C        2.5905390630   -1.9439128906    4.9026564373
C        1.6757431013   -1.1164500870    6.9865284106
C        0.8840314160   -0.2522162873    4.8756588410
C        1.8012636599   -1.0769674580    2.6562394865
C        1.7601218999   -1.0926428854    4.1478339143
C        0.8386673903   -0.2601985364    6.2744908971
Cl      -0.2587672298    0.7949710715    7.1225291462
H        1.9065146359   -1.0326063548   -1.2721484277
H        0.3512007861    0.4618654224   -0.0456729987
H        3.3973493911   -2.5576184922   -0.0030176286
H        3.2037849873   -2.6253843503    6.8561989509
H        0.2653820453    0.4556820500    2.3649123772
H        3.3550120812   -2.6070209024    2.4112649962
H        3.2944073275   -2.6238054771    4.4415912689
H        1.6420115662   -1.1241000645    8.0719522430
H        0.2064463725    0.4373913897    4.3918091158
