22   

C        1.8654148756   -1.0660886936   -0.1744318436
C        1.1522270042   -0.0843875342    0.5133809827
C        2.5628527091   -2.0384043461    0.5420545141
C        2.6657757668   -1.8148234308    6.3045494097
C        1.1394482465   -0.0730449816    1.9132880421
C        2.5495681398   -2.0259420278    1.9417599005
C        2.7295918291   -1.7829406733    4.9070282501
C        1.6636552581   -1.1135362102    6.9758559147
C        0.7918049449   -0.3553006995    4.8549483065
C        1.8458659547   -1.0347861920    2.6605102600
C        1.8023724922   -1.0437055815    4.1483916348
C        0.7214038271   -0.3824893931    6.2524947087
Cl      -0.5422085376    0.4823616597    7.0841138843
H        1.8746734324   -1.0752708794   -1.2607358169
H        0.6073073061    0.6756753423   -0.0392737968
H        3.1114765657   -2.8117618959    0.0120308738
H        3.3994025477   -2.3839477071    6.8686179369
H        0.5858652347    0.7243759268    2.3946060769
H        3.0826889330   -2.8219911687    2.4475002112
H        3.5384774037   -2.3277996420    4.4348710335
H        1.6101837242   -1.1359648109    8.0602778938
H        0.0182905743    0.2009937228    4.3405300480
22   

C        1.8817457461   -1.0657807305   -0.1571826892
C        1.2826695831   -0.0051058038    0.5261875077
C        2.4482289484   -2.1209312191    0.5616141556
C        2.7324627148   -1.6791318038    6.3070251564
C        1.2513589074    0.0003645067    1.9257567691
C        2.4167679926   -2.1137953403    1.9611916824
C        2.7884021354   -1.6678720082    4.9088814893
C        1.6576281099   -1.0792115099    6.9682458478
C        0.6999762562   -0.4606605469    4.8379388594
C        1.8215456537   -1.0507702391    2.6664203553
C        1.7750222552   -1.0547873246    4.1503950299
C        0.6368227568   -0.4682753362    6.2360808978
Cl      -0.7093880235    0.2722291786    7.0576379509
H        1.9054137744   -1.0707751208   -1.2432910253
H        0.8428507395    0.8184826054   -0.0290447733
H        2.9088347087   -2.9510378991    0.0336700296
H        3.5263903779   -2.1513809908    6.8787829273
H        0.7943964018    0.8456779901    2.4299465608
H        2.8442675152   -2.9573874152    2.4930439009
H        3.6417564833   -2.1249655032    4.4185077390
H        1.6096845140   -1.0859486341    8.0531315181
H       -0.1165354453   -0.0001388887    4.2926730749
22   

C        1.8897079518   -1.0596689432   -0.1503392405
C        1.4065244770    0.0545567681    0.5422179188
C        2.3238352425   -2.1843973920    0.5576541931
C        2.7969501446   -1.5620470531    6.2942062291
C        1.3560480750    0.0424516740    1.9411845361
C        2.2730848010   -2.1946909043    1.9567399021
C        2.8332146591   -1.5736498270    4.8954165028
C        1.6720169524   -1.0636528685    6.9590704303
C        0.6272973304   -0.5893236110    4.8319910273
C        1.7841173881   -1.0842979898    2.6639067469
C        1.7452959146   -1.0927938592    4.1473274417
C        0.5833069600   -0.5743049491    6.2308788904
Cl      -0.8177390772    0.0481655720    7.0584147633
H        1.9289438336   -1.0509079787   -1.2359704048
H        1.0731112143    0.9317387107   -0.0049442569
H        2.6990739554   -3.0516693685    0.0219490168
H        3.6434983531   -1.9361657268    6.8630873124
H        0.9914994396    0.9190088186    2.4683164747
H        2.6050223319   -3.0769888126    2.4955174151
H        3.7160009813   -1.9487910256    4.3863888477
H        1.6391621625   -1.0522486608    8.0444766679
H       -0.2259852109   -0.2151726696    4.2755080848
22   

C        1.8854954874   -1.0596085794   -0.1460425420
C        1.5405634259    0.1011438227    0.5541186403
C        2.1697958139   -2.2372151227    0.5533969088
C        2.8303650849   -1.4267490625    6.2874853108
C        1.4770951358    0.0822081567    1.9524893762
C        2.1058189368   -2.2540394445    1.9519647658
C        2.8579240961   -1.4524009743    4.8886683277
C        1.6604418669   -1.0480186204    6.9551465730
C        0.5543650449   -0.7193773177    4.8311527229
C        1.7495135613   -1.0986058406    2.6620860418
C        1.7150827967   -1.1100584424    4.1483505031
C        0.5185943440   -0.6907297268    6.2301414727
Cl      -0.9352222073   -0.2112143064    7.0617293821
H        1.9354467161   -1.0456472012   -1.2311785202
H        1.3252820483    1.0185030061    0.0136594583
H        2.4409504535   -3.1388959862    0.0117398177
H        3.7173676321   -1.6963662332    6.8538456056
H        1.2199693458    0.9881257225    2.4936318186
H        2.3276410124   -3.1699259889    2.4917893392
H        3.7693697405   -1.7340222293    4.3693821815
H        1.6340815648   -1.0255561032    8.0405557136
H       -0.3318884464   -0.4409187252    4.2696066398
22   

C        1.8867555671   -1.0679413466   -0.1450574150
C        1.7113586039    0.1298644894    0.5563510293
C        2.0048939632   -2.2746474277    0.5532622928
C        2.8667302216   -1.2676093338    6.2912661657
C        1.6518194828    0.1191497109    1.9550143484
C        1.9449410625   -2.2828249338    1.9521269487
C        2.9005042663   -1.2904607791    4.8925173744
C        1.6558374527   -1.0417383692    6.9557740253
C        0.5214061412   -0.8600984143    4.8288795718
C        1.7601612421   -1.0886231026    2.6611787249
C        1.7249479228   -1.0963011851    4.1517417739
C        0.4787516283   -0.8353063100    6.2278145442
Cl      -1.0266970831   -0.5468265625    7.0557075007
H        1.9335107664   -1.0606894797   -1.2304007985
H        1.6236324920    1.0685300529    0.0167271046
H        2.1441410107   -3.2053469975    0.0107105967
H        3.7794910645   -1.4220113321    6.8598276795
H        1.5225488748    1.0494948337    2.5004498661
H        2.0391924758   -3.2192114139    2.4942902104
H        3.8393014961   -1.4573400561    4.3722400800
H        1.6241533810   -1.0222417669    8.0410977772
H       -0.3898111411   -0.6969848895    4.2618173211
22   

C        1.8770479291   -1.0790290882   -0.1465643504
C        1.9016239416    0.1358288233    0.5471119674
C        1.8125648412   -2.2849798653    0.5601396494
C        2.8893632339   -1.0907735277    6.3028693047
C        1.8618624204    0.1430628137    1.9465281020
C        1.7729047230   -2.2749138902    1.9597074130
C        2.9384748042   -1.0969406571    4.9043882578
C        1.6527462631   -1.0437504768    6.9567087097
C        0.5233633401   -1.0093515557    4.8197192368
C        1.7974820640   -1.0625048667    2.6608618016
C        1.7546367197   -1.0562277842    4.1535174278
C        0.4647954518   -1.0028530284    6.2182965198
Cl      -1.0740684691   -0.9443513132    7.0328368330
H        1.9075195628   -1.0859042066   -1.2324888067
H        1.9510867020    1.0734274980    0.0008188370
H        1.7928037113   -3.2292925236    0.0236256746
H        3.8095818654   -1.1224349006    6.8794395316
H        1.8802448183    1.0852815387    2.4865289563
H        1.7222299662   -3.2105622010    2.5090049940
H        3.8954001502   -1.1333551769    4.3916877888
H        1.6087908571   -1.0387551945    8.0417682482
H       -0.3963963151   -0.9776984120    4.2438936624
22   

C        1.8731497907   -1.0909415074   -0.1472258796
C        2.0889101159    0.1088105139    0.5392731776
C        1.6243459116   -2.2681132753    0.5667840048
C        2.8687708520   -0.9165678526    6.3128431981
C        2.0583118205    0.1291716269    1.9387864214
C        1.5943311394   -2.2449205043    1.9664024700
C        2.9311753123   -0.9102793640    4.9149019638
C        1.6320425611   -1.0465392779    6.9548324787
C        0.5293714201   -1.1658412731    4.8070942562
C        1.8187629009   -1.0492129978    2.6618444988
C        1.7598458739   -1.0256666352    4.1515139173
C        0.4575633466   -1.1734164370    6.2050126137
Cl      -1.0810105370   -1.3420713088    7.0046057376
H        1.8958318391   -1.1079002101   -1.2332305850
H        2.2773652324    1.0251394669   -0.0128043595
H        1.4528733545   -3.2001571724    0.0358738396
H        3.7792001044   -0.8234468339    6.8982351208
H        2.2185178261    1.0616590730    2.4720988817
H        1.3982074996   -3.1585284569    2.5201474198
H        3.8896242188   -0.8171914099    4.4123534717
H        1.5778621429   -1.0526416643    8.0394234693
H       -0.3804250639   -1.2668496001    4.2234963368
22   

C        1.8695025910   -1.0925298169   -0.1504209257
C        2.2486720977    0.0630285918    0.5404304980
C        1.4553828724   -2.2245739959    0.5591928890
C        2.8387929533   -0.7581388563    6.3065432106
C        2.2164639975    0.0840298570    1.9398600882
C        1.4237957182   -2.2013207300    1.9587357805
C        2.8980574286   -0.7532402354    4.9084903479
C        1.6299326427   -1.0399293494    6.9522645932
C        0.5484457041   -1.3134690299    4.8079692669
C        1.8127546079   -1.0512419071    2.6610595672
C        1.7496278639   -1.0200745335    4.1461833151
C        0.4805133615   -1.3207085195    6.2060280475
Cl      -1.0228576660   -1.6787260696    7.0102435343
H        1.8934713357   -1.1097422806   -1.2363945392
H        2.5646271132    0.9455603352   -0.0084447816
H        1.1572728609   -3.1220695761    0.0247630919
H        3.7310321417   -0.5472814241    6.8893633548
H        2.5010899681    0.9860814716    2.4734713065
H        1.1015206137   -3.0826617573    2.5055739136
H        3.8385011832   -0.5460171035    4.4061713002
H        1.5785992484   -1.0456919800    8.0369963611
H       -0.3444819962   -1.5316010294    4.2305380407
22   

C        1.8715479575   -1.0859507348   -0.1512512634
C        2.3880315249    0.0066944787    0.5515155211
C        1.3148672378   -2.1618589172    0.5467513812
C        2.8069732001   -0.6236054724    6.3006282492
C        2.3490331427    0.0215750458    1.9508241655
C        1.2761969401   -2.1451839516    1.9461501698
C        2.8568930247   -0.6267729449    4.9022175546
C        1.6425383851   -1.0328789744    6.9583086885
C        0.5855666484   -1.4481498065    4.8249213774
C        1.7967097633   -1.0559966020    2.6642813309
C        1.7438329276   -1.0338390520    4.1472658351
C        0.5277223405   -1.4477026192    6.2233733276
Cl      -0.9228400867   -1.9585178147    7.0420157926
H        1.9013342444   -1.0983396308   -1.2371480438
H        2.8166402857    0.8462336933    0.0116814857
H        0.9133886682   -3.0124020075    0.0032575606
H        3.6731806044   -0.3070615934    6.8748345060
H        2.7411960604    0.8809670611    2.4861583763
H        0.8492511231   -2.9910460652    2.4765706664
H        3.7688369101   -0.3207564112    4.3983249307
H        1.5988186384   -1.0323090142    8.0433893094
H       -0.2880359811   -1.7632584792    4.2634451848
22   

C        1.9239936149   -1.0574195058   -0.1569318703
C        1.4077202477   -2.1643789571    0.5207299836
C        2.3712333316    0.0508052213    0.5661462474
C        0.6237508916   -1.7473946642    6.2200375121
C        1.3402876313   -2.1631384872    1.9190909397
C        2.3038723926    0.0506286249    1.9644159485
C        0.6905682263   -1.7505492517    4.8223177582
C        1.5760797707   -1.0456477320    6.9636231709
C        2.6567437900   -0.3549023255    4.9160458829
C        1.7917720734   -1.0585517889    2.6638525530
C        1.7058053476   -1.0507126246    4.1459949538
C        2.5968403607   -0.3472820568    6.3143272561
Cl       3.7912888763    0.5208874287    7.2390693455
H        1.9761376475   -1.0577093949   -1.2420576102
H        1.0610787793   -3.0289374972   -0.0381413664
H        2.7670721875    0.9163837857    0.0425978697
H       -0.1706360877   -2.2877282368    6.7272245698
H        0.9504785657   -3.0433326898    2.4196609035
H        2.6373984993    0.9341518279    2.4989616282
H       -0.0706763647   -2.2883850307    4.2666365118
H        1.5284373423   -1.0406391455    8.0485328865
H        3.4721081101    0.1759631130    4.4369630318
22   

C        1.9156435973   -1.0542973684   -0.1662576049
C        1.2709779398   -2.0915269020    0.5077697875
C        2.4950768379   -0.0158035361    0.5625104342
C        0.7185242850   -1.8558910494    6.2391497432
C        1.2098223391   -2.0926732371    1.9065387034
C        2.4336008381   -0.0179129812    1.9609020338
C        0.7809404749   -1.8549160517    4.8411146162
C        1.5880792943   -1.0544030040    6.9797541870
C        2.5811410562   -0.2583024144    4.9273792696
C        1.8001875817   -1.0645926496    2.6658985752
C        1.7043515320   -1.0469758786    4.1511526046
C        2.5246966805   -0.2539978889    6.3257402080
Cl       3.6247256452    0.7363882237    7.2451336113
H        1.9627818153   -1.0532311362   -1.2516170109
H        0.8175684461   -2.9025496402   -0.0549556587
H        2.9887246637    0.8006293300    0.0430809880
H       -0.0102992420   -2.4793369390    6.7494622540
H        0.7135399753   -2.9328582393    2.3769509076
H        2.8717578307    0.8285116278    2.4764715406
H        0.0704108966   -2.4803820951    4.3141090388
H        1.5429119501   -1.0524910323    8.0647838174
H        3.3463403333    0.3552200556    4.4682296818
22   

C        1.9066897318   -1.0512420587   -0.1814875756
C        1.1046496701   -1.9741638300    0.4866264848
C        2.6490889626   -0.1307510042    0.5549118133
C        0.8516739320   -1.9949097954    6.2463883559
C        1.0447041234   -1.9772421068    1.8855660477
C        2.5889504577   -0.1340583885    1.9532761382
C        0.9131400034   -1.9899804494    4.8482249835
C        1.5934333376   -1.0745799153    6.9849147055
C        2.4552891308   -0.1477294814    4.9289771409
C        1.7831880809   -1.0595884639    2.6581512216
C        1.7155819753   -1.0676806849    4.1487511403
C        2.3985610299   -0.1469637939    6.3273484623
Cl       3.3294168696    1.0075404297    7.2424803173
H        1.9528253434   -1.0493393283   -1.2668931121
H        0.5232280263   -2.6946606363   -0.0815955107
H        3.2768696676    0.5920530017    0.0415463928
H        0.2237883324   -2.7183098898    6.7590148594
H        0.3992692659   -2.7247019327    2.3263737773
H        3.1928554751    0.6098623732    2.4556234527
H        0.3093224553   -2.7342625227    4.3468612938
H        1.5479747076   -1.0756903595    8.0699381694
H        3.0998822192    0.5991728280    4.4867137932
22   

C        1.9088811745   -1.0314836749   -0.1735917831
C        0.9646767224   -1.8224469933    0.4811013010
C        2.7932616390   -0.2547472638    0.5746719484
C        0.9965260984   -2.1238575522    6.2350906378
C        0.9020282450   -1.8333067174    1.8797617453
C        2.7297188096   -0.2660487173    1.9729326303
C        1.0591569178   -2.1112358131    4.8371189776
C        1.5965069578   -1.1024143781    6.9724765359
C        2.3147993312   -0.0581866497    4.9167786770
C        1.7727584943   -1.0465709340    2.6575503920
C        1.7304121220   -1.0857127287    4.1448657394
C        2.2562172711   -0.0640216831    6.3150452647
Cl       2.9928659627    1.2234307955    7.2293845430
H        1.9577461823   -1.0234088089   -1.2588460150
H        0.2738190485   -2.4296641256   -0.0968289130
H        3.5382740683    0.3546394934    0.0710253561
H        0.4825452071   -2.9319185280    6.7480714188
H        0.1365866220   -2.4511882529    2.3334195012
H        3.4604057970    0.3305940690    2.5061848048
H        0.5938163038   -2.9380281351    4.3139983936
H        1.5498666419   -1.1085172355    8.0574287352
H        2.8100501700    0.7856810348    4.4526752205
22   

C        1.9067468550   -1.0300744222   -0.1593740600
C        0.8725379190   -1.7061723909    0.4920847615
C        2.8818257288   -0.3680901745    0.5902996172
C        1.1245266665   -2.1862752742    6.2345777888
C        0.8132419300   -1.7187954840    1.8907538739
C        2.8211140484   -0.3809077490    1.9888183205
C        1.1819078091   -2.1745217916    4.8364758645
C        1.6113108941   -1.0979222130    6.9631943463
C        2.2089709426    0.0081457780    4.8999765657
C        1.7828766061   -1.0524508686    2.6617666373
C        1.7291517812   -1.0788016672    4.1451978944
C        2.1547373941    0.0039508548    6.2984903732
Cl       2.7538917278    1.3665738706    7.2039515978
H        1.9534609875   -1.0203342313   -1.2447034271
H        0.1111740073   -2.2201885608   -0.0876332505
H        3.6915586652    0.1530990996    0.0875961276
H        0.7046369089   -3.0431312077    6.7539402371
H       -0.0107313781   -2.2374927501    2.3695900841
H        3.6046684805    0.1226059974    2.5456911777
H        0.8135444049   -3.0389459259    4.2936855080
H        1.5685529519   -1.1024612656    8.0483081015
H        2.6144690092    0.8850533340    4.4072660622
22   

C        1.9148392543   -1.0233699941   -0.1566798753
C        0.8042252457   -1.5818715709    0.4829403892
C        2.9589525340   -0.4878164457    0.6033786438
C        1.2366798099   -2.2518680881    6.2268471982
C        0.7396445688   -1.6059214805    1.8811715718
C        2.8925826824   -0.5122193555    2.0016259217
C        1.2895635568   -2.2390873059    4.8286056275
C        1.6090500691   -1.1140092180    6.9497162538
C        2.0867047294    0.0414968140    4.8814629715
C        1.7849248260   -1.0753860717    2.6565474456
C        1.7099504169   -1.0893605757    4.1386937575
C        2.0364610340    0.0366799890    6.2802069989
Cl       2.5013370447    1.4541904601    7.1800894897
H        1.9657892822   -1.0042142349   -1.2416912003
H       -0.0107422713   -1.9942238033   -0.1050619814
H        3.8233641120   -0.0537903156    0.1090028531
H        0.9102300758   -3.1460496568    6.7503923437
H       -0.1334284612   -2.0303664653    2.3675037128
H        3.7142268544   -0.1010424909    2.5803706982
H        1.0120402698   -3.1305843727    4.2741609932
H        1.5698558798   -1.1189196954    8.0349594098
H        2.4111838914    0.9424911389    4.3709220564
22   

C        1.9207051846   -1.0215500099   -0.1551110071
C        0.7461812741   -1.4430957015    0.4766870616
C        3.0222829190   -0.6282740520    0.6119910796
C        1.3713734290   -2.2834173420    6.2362283010
C        0.6758037405   -1.4740365758    1.8745322644
C        2.9496818431   -0.6598556690    2.0098418117
C        1.4162901045   -2.2798422720    4.8376390444
C        1.6161314464   -1.1020047955    6.9447875892
C        1.9521569308    0.0774594870    4.8619040198
C        1.7803512185   -1.0916433592    2.6528279085
C        1.6962753894   -1.0956750306    4.1372228300
C        1.9094788362    0.0825682540    6.2609722291
Cl       2.2213980801    1.5518276120    7.1436085502
H        1.9762137123   -0.9965056109   -1.2397770060
H       -0.1128211265   -1.7429955673   -0.1167174845
H        3.9343796066   -0.2973502369    0.1235734042
H        1.1506316151   -3.2030356935    6.7708375628
H       -0.2409802504   -1.7914884150    2.3625712498
H        3.8074844889   -0.3535519922    2.6014567951
H        1.2378698167   -3.1988155987    4.2868628373
H        1.5831799592   -1.0994121561    8.0302451438
H        2.1799745589    0.9975973111    4.3329677140
22   

C        1.9192710641   -1.0250494556   -0.1524264391
C        0.6987471349   -1.2834920619    0.4806387433
C        3.0676807693   -0.7967837032    0.6134053432
C        1.5297345873   -2.3117806474    6.2465354100
C        0.6289114095   -1.3160455670    1.8785134933
C        2.9950209636   -0.8299521083    2.0112568699
C        1.5732877159   -2.3113380562    4.8478669039
C        1.6226719971   -1.1039191247    6.9472269853
C        1.8045144581    0.0953267538    4.8563781455
C        1.7783251658   -1.0974185842    2.6530004908
C        1.7017855179   -1.1057792903    4.1420287539
C        1.7621377955    0.1042940195    6.2554907910
Cl       1.8846804699    1.6069854716    7.1283615751
H        1.9746072308   -0.9987170281   -1.2370705561
H       -0.1953816021   -1.4561324563   -0.1115541415
H        4.0157314876   -0.5922659801    0.1241745875
H        1.4267051167   -3.2484957591    6.7870784498
H       -0.3197966181   -1.5094229335    2.3706307598
H        3.8862822376   -0.6497550741    2.6053611460
H        1.5090693735   -3.2471148508    4.3001056298
H        1.5900357374   -1.0984910156    8.0326835103
H        1.9153676181    1.0314085078    4.3178789374
22   

C        1.9066783521   -1.0356912136   -0.1520775590
C        0.6687636639   -1.1029637260    0.4965345605
C        3.0863557972   -0.9889251496    0.5989535558
C        1.7064707543   -2.3235023860    6.2452077061
C        0.6122555796   -1.1235409782    1.8952476467
C        3.0269456093   -1.0096383250    1.9976995080
C        1.7616368403   -2.3127821488    4.8469766542
C        1.6219412817   -1.1165076162    6.9487184245
C        1.6479341563    0.1025515464    4.8614924545
C        1.7912002247   -1.0771869095    2.6538733323
C        1.7327031871   -1.0985959668    4.1458371986
C        1.5923063884    0.1013520321    6.2602018716
Cl       1.4870808166    1.6033678459    7.1364862841
H        1.9518029937   -1.0193162468   -1.2373898138
H       -0.2485465269   -1.1387932791   -0.0841815293
H        4.0485167527   -0.9360990257    0.0975347990
H        1.7292482253   -3.2671150971    6.7830871509
H       -0.3479404961   -1.1751176923    2.4002994351
H        3.9421800197   -0.9727446212    2.5814124609
H        1.8273113160   -3.2465225979    4.2958792960
H        1.5788646160   -1.1189558386    8.0338219044
H        1.6251473766    1.0456661093    4.3243209407
22   

C        1.8952477437   -1.0343465219   -0.1523751074
C        0.6718865421   -0.9045540959    0.5139937870
C        3.0785275711   -1.1720865727    0.5815564861
C        1.8839052000   -2.3111930359    6.2347645027
C        0.6335979653   -0.9101546355    1.9134280494
C        3.0377585869   -1.1773249435    1.9811263937
C        1.9557371563   -2.2794311863    4.8376350007
C        1.6203245927   -1.1350751651    6.9461785977
C        1.4988238440    0.0953950281    4.8689439712
C        1.8176335017   -1.0384836922    2.6556548496
C        1.7730643706   -1.0726723899    4.1455982304
C        1.4249517736    0.0724467713    6.2666173682
Cl       1.0895601737    1.5344830638    7.1525981548
H        1.9260067101   -1.0305411810   -1.2383069267
H       -0.2486011391   -0.8017431656   -0.0535581148
H        4.0290091095   -1.2759995131    0.0660556327
H        2.0296006151   -3.2478019919    6.7655875237
H       -0.3165110732   -0.8163280357    2.4313503483
H        3.9559643641   -1.2867961830    2.5508251359
H        2.1520450054   -3.1911141725    4.2807017043
H        1.5627602444   -1.1542746509    8.0304432980
H        1.3444009971    1.0303096588    4.3392565097
22   

C        1.8884093490   -1.0376032468   -0.1529686046
C        0.6998003568   -0.7361813993    0.5200118227
C        3.0439492897   -1.3410329456    0.5746737313
C        2.0399523409   -2.2666778238    6.2409709829
C        0.6688184309   -0.7352966724    1.9196055650
C        3.0108484719   -1.3396662562    1.9744149637
C        2.1151954163   -2.2309898005    4.8441296267
C        1.6241933643   -1.1319003792    6.9462049591
C        1.3575995269    0.0652586529    4.8632905514
C        1.8270618177   -1.0272932529    2.6580241702
C        1.7857186150   -1.0595287318    4.1437948490
C        1.2792650398    0.0377310391    6.2605666621
Cl       0.7536848850    1.4476907694    7.1385362040
H        1.9131864002   -1.0389994577   -1.2390600816
H       -0.2004518811   -0.5061889385   -0.0426960557
H        3.9672244222   -1.5784881603    0.0539797302
H        2.2998629916   -3.1754842821    6.7764607299
H       -0.2585174538   -0.5118988861    2.4390064650
H        3.9097200699   -1.5761954894    2.5361511930
H        2.4256392358   -3.1152292294    4.2950872859
H        1.5631902331   -1.1546507366    8.0302129046
H        1.0886950727    0.9730051066    4.3322488971
22   

C        1.8896820084   -1.0422882174   -0.1568783106
C        0.7456909002   -0.6022717490    0.5155987366
C        2.9934895966   -1.4959911361    0.5714643704
C        2.1733413716   -2.2324645558    6.2549062514
C        0.7071759389   -0.6144591702    1.9149359956
C        2.9531224501   -1.5079556684    1.9708848652
C        2.2346862575   -2.2058628176    4.8571913082
C        1.6386997436   -1.1435483669    6.9508943960
C        1.2273483670   -0.0092912439    4.8568200781
C        1.8123664720   -1.0628142956    2.6584295290
C        1.7677294487   -1.0902956136    4.1416390383
C        1.1625821208   -0.0282546055    6.2548443213
Cl       0.4950826060    1.3279264404    7.1211242398
H        1.9202314116   -1.0328587122   -1.2427837289
H       -0.1153010370   -0.2537646278   -0.0476392248
H        3.8838306866   -1.8377251432    0.0514126345
H        2.5370618828   -3.0998296209    6.7986134229
H       -0.1919350190   -0.2829589639    2.4256447825
H        3.8195661451   -1.8544554837    2.5259749526
H        2.6378748053   -3.0610533021    4.3231114490
H        1.5887035543   -1.1595058076    8.0355878323
H        0.8631028537    0.8642324019    4.3257490613
22   

C        1.8912055850   -1.0397504692   -0.1596781886
C        0.8004882075   -0.4813483729    0.5107397865
C        2.9272512964   -1.6258479399    0.5711049519
C        2.2884846558   -2.1603335973    6.2804746839
C        0.7459671063   -0.5101844849    1.9093087604
C        2.8711050084   -1.6545730085    1.9696353646
C        2.3269167383   -2.1565655716    4.8817038118
C        1.6531978104   -1.1209386638    6.9648801555
C        1.0986369476   -0.0795042500    4.8563782424
C        1.7773603220   -1.1009347000    2.6615884441
C        1.7289932977   -1.1180829508    4.1453811169
C        1.0564476811   -0.0760715970    6.2553311525
Cl       0.2718845224    1.2261947584    7.1063033733
H        1.9342367018   -1.0167341595   -1.2449600783
H       -0.0083644012   -0.0265056514   -0.0539704112
H        3.7805001563   -2.0549445563    0.0536121730
H        2.7496655831   -2.9731100710    6.8345091392
H       -0.1216785795   -0.0839353076    2.4023366568
H        3.7005495224   -2.0959779764    2.5122747732
H        2.8109283344   -2.9834444642    4.3721737197
H        1.6213024148   -1.1193398037    8.0503762933
H        0.6480286593    0.7548893630    4.3302408349
22   

C        1.8980536237   -1.0331302626   -0.1731795190
C        0.8839379599   -0.3551804261    0.5031448967
C        2.8495402299   -1.7490216214    0.5530044245
C        2.4093028351   -2.0737046100    6.2947489104
C        0.8195491796   -0.3959394278    1.9010808049
C        2.7840352436   -1.7892778384    1.9507151111
C        2.4309130914   -2.0844159633    4.8956159343
C        1.6731216224   -1.1039917125    6.9762151916
C        0.9868920326   -0.1583878688    4.8624002836
C        1.7593974203   -1.1220681199    2.6572113154
C        1.7116182910   -1.1353078037    4.1449256150
C        0.9605244574   -0.1411370329    6.2616280189
Cl       0.0522226611    1.0823466211    7.1068200626
H        1.9483921421   -1.0008408176   -1.2579144075
H        0.1398795854    0.2038810737   -0.0571119148
H        3.6478539950   -2.2703461724    0.0325133836
H        2.9640299339   -2.8234061905    6.8519825664
H       -0.0010175269    0.1319934342    2.3722054999
H        3.5657085991   -2.3344477615    2.4659450918
H        3.0013193308   -2.8699846623    4.4143486630
H        1.6540045424   -1.0917496742    8.0619490106
H        0.4427102570    0.6293878136    4.3567424457
22   

C        1.8784172061   -1.0458569582   -0.1862066311
C        1.0060271943   -0.2077082495    0.5047600896
C        2.7142781587   -1.9009917911    0.5282931387
C        2.5507678385   -1.9574362178    6.3014593320
C        0.9693463852   -0.2243208145    1.9043124404
C        2.6769274446   -1.9169263748    1.9274394263
C        2.5905390630   -1.9439128906    4.9026564373
C        1.6757431163   -1.1164500768    6.9865284076
C        0.8840314192   -0.2522162840    4.8756588394
C        1.8012636599   -1.0769674580    2.6562394865
C        1.7601218999   -1.0926428854    4.1478339143
C        0.8386674030   -0.2601985268    6.2744908944
Cl      -0.2587672066    0.7949710899    7.1225291453
H        1.9065146589   -1.0326063305   -1.2721484279
H        0.3512007982    0.4618654221   -0.0456730064
H        3.3973494150   -2.5576184709   -0.0030176294
H        3.2037849970   -2.6253843510    6.8561989384
H        0.2653820372    0.4556820488    2.3649123672
H        3.3550120878   -2.6070208986    2.4112649939
H        3.2944073237   -2.6238054812    4.4415912690
H        1.6420115908   -1.1241000501    8.0719522397
H        0.2064463732    0.4373913903    4.3918091107
