22   

C        1.8654143790   -1.0660890077   -0.1744318475
C        1.1522267872   -0.0843876540    0.5133809874
C        2.5628520936   -2.0384047598    0.5420545034
C        2.6657756890   -1.8148234699    6.3045494098
C        1.1394482465   -0.0730449816    1.9132880421
C        2.5495677082   -2.0259423296    1.9417598993
C        2.7295918291   -1.7829406733    4.9070282501
C        1.6636551102   -1.1135362984    6.9758558787
C        0.7918048099   -0.3553008557    4.8549482537
C        1.8458659547   -1.0347861920    2.6605102600
C        1.8023724922   -1.0437055815    4.1483916348
C        0.7214036416   -0.3824895515    6.2524946460
Cl      -0.5422088293    0.4823614133    7.0841137605
H        1.8746727874   -1.0752712737   -1.2607358218
H        0.6073071414    0.6756752813   -0.0392737675
H        3.1114757062   -2.8117624727    0.0120308485
H        3.3994024644   -2.3839477216    6.8686179714
H        0.5858654558    0.7243760648    2.3946061075
H        3.0826883438   -2.8219915593    2.4475002434
H        3.5384774455   -2.3277995648    4.4348710077
H        1.6101835389   -1.1359648907    8.0602778549
H        0.0182903987    0.2009934637    4.3405299413
22   

C        1.8817485866   -1.0657790386   -0.1571826923
C        1.2826707343   -0.0051050946    0.5261875294
C        2.4482326926   -2.1209290512    0.5616141153
C        2.7324625952   -1.6791319396    6.3070251544
C        1.2513589074    0.0003645067    1.9257567691
C        2.4167706946   -2.1137938217    1.9611916181
C        2.7884021354   -1.6678720082    4.9088814893
C        1.6576278490   -1.0792118828    6.9682458284
C        0.6999760414   -0.4606609016    4.8379388385
C        1.8215456537   -1.0507702391    2.6664203553
C        1.7750222552   -1.0547873246    4.1503950299
C        0.6368224275   -0.4682758485    6.2360808662
Cl      -0.7093885871    0.2722282833    7.0576378826
H        1.9054173880   -1.0707729538   -1.2432910148
H        0.8428514985    0.8184831303   -0.0290447149
H        2.9088400009   -2.9510348655    0.0336699762
H        3.5263902904   -2.1513810464    6.8787829472
H        0.7943952910    0.8456773996    2.4299465368
H        2.8442711410   -2.9573855352    2.4930436519
H        3.6417566680   -2.1249653178    4.4185079078
H        1.6096841889   -1.0859491010    8.0531314957
H       -0.1165357433   -0.0001393873    4.2926730599
22   

C        1.8897171550   -1.0596647730   -0.1503390597
C        1.4065281839    0.0545585343    0.5422180707
C        2.3238473646   -2.1843920791    0.5576543451
C        2.7969500180   -1.5620472954    6.2942062336
C        1.3560480750    0.0424516740    1.9411845361
C        2.2730934668   -2.1946871956    1.9567399172
C        2.8332146591   -1.5736498270    4.8954165028
C        1.6720167212   -1.0636533607    6.9590704367
C        0.6272971653   -0.5893239681    4.8319910413
C        1.7841173881   -1.0842979898    2.6639067469
C        1.7452959146   -1.0927938592    4.1473274417
C        0.5833067118   -0.5743054815    6.2308789030
Cl      -0.8177394463    0.0481647717    7.0584147836
H        1.9289555606   -1.0509026055   -1.2359701231
H        1.0731136335    0.9317400600   -0.0049439900
H        2.6990911061   -3.0516619275    0.0219492459
H        3.6434982374   -1.9361659396    6.8630873291
H        0.9914958475    0.9190073856    2.4683163628
H        2.6050338760   -3.0769841837    2.4955171497
H        3.7160012470   -1.9487907291    4.3863891119
H        1.6391618645   -1.0522493101    8.0444766736
H       -0.2259854620   -0.2151731740    4.2755081345
22   

C        1.8855113039   -1.0596039353   -0.1460419673
C        1.5405698150    0.1011457815    0.5541189523
C        2.1698165999   -2.2372091697    0.5533975952
C        2.8303650739   -1.4267490789    6.2874853130
C        1.4770951358    0.0822081567    1.9524893762
C        2.1058337223   -2.2540352293    1.9519651515
C        2.8579240961   -1.4524009743    4.8886683277
C        1.6604418751   -1.0480186171    6.9551465858
C        0.5543650858   -0.7193772016    4.8311527457
C        1.7495135613   -1.0986058406    2.6620860418
C        1.7150827967   -1.1100584424    4.1483505031
C        0.5185943832   -0.6907296264    6.2301414958
Cl      -0.9352221372   -0.2112141049    7.0617294025
H        1.9354669075   -1.0456412338   -1.2311777287
H        1.3252862773    1.0185045005    0.0136598388
H        2.4409798857   -3.1388876376    0.0117408458
H        3.7173676245   -1.6963662461    6.8538456035
H        1.2199632249    0.9881241275    2.4936315742
H        2.3276606941   -3.1699206150    2.4917896779
H        3.7693698710   -1.7340221006    4.3693823490
H        1.6340815731   -1.0255561285    8.0405557295
H       -0.3318884179   -0.4409185518    4.2696067155
22   

C        1.8867698306   -1.0679393771   -0.1450569090
C        1.7113643762    0.1298653403    0.5563512814
C        2.0049127658   -2.2746449166    0.5532629295
C        2.8667302623   -1.2676091279    6.2912661631
C        1.6518194828    0.1191497109    1.9550143484
C        1.9449545039   -2.2828231458    1.9521273540
C        2.9005042663   -1.2904607791    4.8925173744
C        1.6558375589   -1.0417378401    6.9557740266
C        0.5214062540   -0.8600978272    4.8288795715
C        1.7601612421   -1.0886231026    2.6611787249
C        1.7249479228   -1.0963011851    4.1517417739
C        0.4787517779   -0.8353055525    6.2278145429
Cl      -1.0266968422   -0.5468253389    7.0557074988
H        1.9335289306   -1.0606869405   -1.2304001218
H        1.6236363153    1.0685307346    0.0167273788
H        2.1441676224   -3.2053434877    0.0107115243
H        3.7794910971   -1.4220111961    6.8598276714
H        1.5225433671    1.0494941773    2.5004496793
H        2.0392103985   -3.2192091282    2.4942906964
H        3.8393014862   -1.4573402061    4.3722401098
H        1.6241535152   -1.0222411146    8.0410977795
H       -0.3898110048   -0.6969841116    4.2618173370
22   

C        1.8770479008   -1.0790290917   -0.1465643490
C        1.9016239313    0.1358288212    0.5471119669
C        1.8125647955   -2.2849798695    0.5601396502
C        2.8893632210   -1.0907735412    6.3028693044
C        1.8618624204    0.1430628137    1.9465281020
C        1.7729046888   -2.2749138889    1.9597074137
C        2.9384748042   -1.0969406571    4.9043882578
C        1.6527462534   -1.0437505282    6.9567087107
C        0.5233633379   -1.0093516084    4.8197192363
C        1.7974820640   -1.0625048667    2.6608618016
C        1.7546367197   -1.0562277842    4.1535174278
C        0.4647954467   -1.0028531081    6.2182965194
Cl      -1.0740684739   -0.9443514645    7.0328368294
H        1.9075195383   -1.0859042132   -1.2324888040
H        1.9510867037    1.0734274940    0.0008188342
H        1.7928036465   -3.2292925286    0.0236256792
H        3.8095818457   -1.1224348969    6.8794395401
H        1.8802448363    1.0852815381    2.4865289567
H        1.7222299216   -3.2105621976    2.5090049965
H        3.8954001516   -1.1333551525    4.3916877896
H        1.6087908430   -1.0387552570    8.0417682501
H       -0.3963963171   -0.9776984936    4.2438936657
22   

C        1.8731354230   -1.0909384887   -0.1472263501
C        2.0889042809    0.1088117901    0.5392730301
C        1.6243270783   -2.2681093962    0.5667833603
C        2.8687709154   -0.9165679840    6.3128431989
C        2.0583118205    0.1291716269    1.9387864214
C        1.5943177722   -2.2449177530    1.9664019609
C        2.9311753123   -0.9102793640    4.9149019638
C        1.6320426772   -1.0465395949    6.9548325325
C        0.5293714771   -1.1658416394    4.8070943545
C        1.8187629009   -1.0492129978    2.6618444988
C        1.7598458739   -1.0256666352    4.1515139173
C        0.4575634633   -1.1734169120    6.2050127096
Cl      -1.0810103614   -1.3420721080    7.0046058735
H        1.8958134729   -1.1078963235   -1.2332311520
H        2.2773612923    1.0251404400   -0.0128043644
H        1.4528466916   -3.2001517182    0.0358729594
H        3.7792001921   -0.8234469332    6.8982350761
H        2.2185233728    1.0616580078    2.4720990755
H        1.3981897410   -3.1585249000    2.5201466859
H        3.8896241997   -0.8171913042    4.4123534582
H        1.5778623001   -1.0526420291    8.0394235250
H       -0.3804250566   -1.2668500328    4.2234965279
22   

C        1.8694873545   -1.0925241430   -0.1504215608
C        2.2486659333    0.0630309743    0.5404303199
C        1.4553628227   -2.2245666801    0.5591919846
C        2.8387930912   -0.7581387290    6.3065432134
C        2.2164639975    0.0840298570    1.9398600882
C        1.4237814230   -2.2013155442    1.9587350332
C        2.8980574286   -0.7532402354    4.9084903479
C        1.6299328428   -1.0399290626    6.9522647384
C        0.5484456761   -1.3134686706    4.8079695286
C        1.8127546079   -1.0512419071    2.6610595672
C        1.7496278639   -1.0200745335    4.1461833151
C        0.4805134684   -1.3207080814    6.2060283145
Cl      -1.0228575541   -1.6787253177    7.0102439522
H        1.8934519180   -1.1097350068   -1.2363952919
H        2.5646230291    0.9455621144   -0.0084447292
H        1.1572444747   -3.1220593043    0.0247618707
H        3.7310323548   -0.5472813231    6.8893632517
H        2.5010958728    0.9860794669    2.4734715396
H        1.1015015730   -3.0826551026    2.5055727287
H        3.8385012021   -0.5460172481    4.4061712811
H        1.5785995555   -1.0456916425    8.0369965107
H       -0.3444822791   -1.5316003737    4.2305385952
22   

C        1.8715388940   -1.0859458706   -0.1512517422
C        2.3880278630    0.0066965246    0.5515153983
C        1.3148553533   -2.1618527069    0.5467506748
C        2.8069732563   -0.6236051231    6.3006282485
C        2.3490331427    0.0215750458    1.9508241655
C        1.2761884677   -2.1451796058    1.9461495812
C        2.8568930247   -0.6267729449    4.9022175546
C        1.6425383957   -1.0328782001    6.9583088273
C        0.5855664603   -1.4481490948    4.8249216359
C        1.7967097633   -1.0559966020    2.6642813309
C        1.7438329276   -1.0338390520    4.1472658351
C        0.5277222161   -1.4477016291    6.2233735886
Cl      -0.9228403505   -1.9585161872    7.0420162140
H        1.9013226474   -1.0983333500   -1.2371486075
H        2.8166378567    0.8462352288    0.0116815494
H        0.9133718497   -3.0123932907    0.0032565793
H        3.6731807555   -0.3070612969    6.8748343964
H        2.7411995937    0.8809653542    2.4861585175
H        0.8492398483   -2.9910405865    2.4765696115
H        3.7688370077   -0.3207567323    4.3983249190
H        1.5988186887   -1.0323080212    8.0433894489
H       -0.2880365165   -1.7632573941    4.2634457965
22   

C        1.9239968053   -1.0574209839   -0.1569317691
C        1.4077215354   -2.1643795678    0.5207300416
C        2.3712375217    0.0508033231    0.5661463533
C        0.6237509095   -1.7473948385    6.2200375130
C        1.3402876313   -2.1631384872    1.9190909397
C        2.3038753805    0.0506273031    1.9644159913
C        0.6905682263   -1.7505492517    4.8223177582
C        1.5760798545   -1.0456481049    6.9636232467
C        2.6567439430   -0.3549026229    4.9160460253
C        1.7917720734   -1.0585517889    2.6638525530
C        1.7058053476   -1.0507126246    4.1459949538
C        2.5968405150   -0.3472824895    6.3143273998
Cl       3.7912891353    0.5208867635    7.2390695767
H        1.9761417320   -1.0577112884   -1.2420574654
H        1.0610796252   -3.0289379384   -0.0381412979
H        2.7670781443    0.9163811108    0.0425980272
H       -0.1706361147   -2.2877283916    6.7272245237
H        0.9504773075   -3.0433321772    2.4196608145
H        2.6374025228    0.9341501899    2.4989615322
H       -0.0706764520   -2.2883849025    4.2666365137
H        1.5284374231   -1.0406396535    8.0485329622
H        3.4721084345    0.1759627369    4.4369633981
22   

C        1.9156431089   -1.0542970629   -0.1662576156
C        1.2709777404   -2.0915267751    0.5077697794
C        2.4950762007   -0.0158031449    0.5625104282
C        0.7185243814   -1.8558911558    6.2391497476
C        1.2098223391   -2.0926732371    1.9065387034
C        2.4336003849   -0.0179127100    1.9609020384
C        0.7809404749   -1.8549160517    4.8411146162
C        1.5880794831   -1.0544032079    6.9797541859
C        2.5811411817   -0.2583025522    4.9273792558
C        1.8001875817   -1.0645926496    2.6658985752
C        1.7043515320   -1.0469758786    4.1511526046
C        2.5246968776   -0.2539981001    6.3257402011
Cl       3.6247259416    0.7363879025    7.2451336029
H        1.9627811883   -1.0532307520   -1.2516170283
H        0.8175683131   -2.9025495479   -0.0549556725
H        2.9887237603    0.8006298817    0.0430809817
H       -0.0102991363   -2.4793370503    6.7494622681
H        0.7135401733   -2.9328583484    2.3769509259
H        2.8717572054    0.8285119657    2.4764715885
H        0.0704108376   -2.4803820111    4.3141090154
H        1.5429122066   -1.0524913190    8.0647838210
H        3.3463404687    0.3552198735    4.4682296182
22   

C        1.9066897424   -1.0512420748   -0.1814875730
C        1.1046496711   -1.9741638340    0.4866264873
C        2.6490889895   -0.1307510329    0.5549118188
C        0.8516739125   -1.9949098157    6.2463883508
C        1.0447041234   -1.9772421068    1.8855660477
C        2.5889504825   -0.1340584080    1.9532761437
C        0.9131400034   -1.9899804494    4.8482249835
C        1.5934333055   -1.0745799426    6.9849147134
C        2.4552891067   -0.1477294732    4.9289771557
C        1.7831880809   -1.0595884639    2.6581512216
C        1.7155819753   -1.0676806849    4.1487511403
C        2.3985609907   -0.1469638046    6.3273484805
Cl       3.3294167897    1.0075404319    7.2424803539
H        1.9528253468   -1.0493393511   -1.2668931115
H        0.5232280200   -2.6946606387   -0.0815955022
H        3.2768697118    0.5920529579    0.0415464008
H        0.2237883165   -2.7183099293    6.7590148323
H        0.3992692596   -2.7247019257    2.3263737787
H        3.1928555224    0.6098623360    2.4556234629
H        0.3093224641   -2.7342625191    4.3468612793
H        1.5479746586   -1.0756904021    8.0699381776
H        3.0998821950    0.5991728475    4.4867138237
22   

C        1.9088814828   -1.0314839842   -0.1735917592
C        0.9646768361   -1.8224470987    0.4811013031
C        2.7932620795   -0.2547477361    0.5746719900
C        0.9965260505   -2.1238574913    6.2350906370
C        0.9020282450   -1.8333067174    1.8797617453
C        2.7297191383   -0.2660490941    1.9729326668
C        1.0591569178   -2.1112358131    4.8371189776
C        1.5965067938   -1.1024142302    6.9724765129
C        2.3147991548   -0.0581865304    4.9167786360
C        1.7727584943   -1.0465709340    2.6575503920
C        1.7304121220   -1.0857127287    4.1448657394
C        2.2562170311   -0.0640214993    6.3150452219
Cl       2.9928655570    1.2234310939    7.2293844683
H        1.9577465669   -1.0234091796   -1.2588459872
H        0.2738191018   -2.4296641510   -0.0968289251
H        3.5382746982    0.3546388112    0.0710254195
H        0.4825452128   -2.9319184840    6.7480714394
H        0.1365865032   -2.4511881078    2.3334195026
H        3.4604062382    0.3305935126    2.5061848941
H        0.5938163732   -2.9380281760    4.3139983931
H        1.5498664338   -1.1085170510    8.0574287126
H        2.8100499063    0.7856811712    4.4526751113
22   

C        1.9067449371   -1.0300717477   -0.1593741762
C        0.8725371370   -1.7061713404    0.4920847402
C        2.8818232194   -0.3680865702    0.5902994305
C        1.1245264756   -2.1862752750    6.2345777770
C        0.8132419300   -1.7187954840    1.8907538739
C        2.8211122681   -0.3809051155    1.9888181571
C        1.1819078091   -2.1745217916    4.8364758645
C        1.6113104333   -1.0979221516    6.9631943957
C        2.2089705098    0.0081459281    4.8999766754
C        1.7828766061   -1.0524508686    2.6617666373
C        1.7291517812   -1.0788016672    4.1451978944
C        2.1547367638    0.0039510136    6.2984904757
Cl       2.7538906025    1.3665742038    7.2039517581
H        1.9534585445   -1.0203308578   -1.2447035590
H        0.1111734739   -2.2201879382   -0.0876332148
H        3.6915551440    0.1531041961    0.0875958629
H        0.7046367722   -3.0431312677    6.7539401636
H       -0.0107307049   -2.2374938107    2.3695900838
H        3.6046662304    0.1226095618    2.5456908185
H        0.8135445963   -3.0389460117    4.2936855202
H        1.5685523771   -1.1024612110    8.0483081477
H        2.6144683950    0.8850536627    4.4072663622
22   

C        1.9148343531   -1.0233609861   -0.1566801133
C        0.8042232033   -1.5818679518    0.4829403546
C        2.9589462190   -0.4878045553    0.6033782631
C        1.2366795792   -2.2518681718    6.2268471912
C        0.7396445688   -1.6059214805    1.8811715718
C        2.8925782458   -0.5122108625    2.0016255666
C        1.2895635568   -2.2390873059    4.8286056275
C        1.6090494286   -1.1140092662    6.9497163662
C        2.0867039939    0.0414969944    4.8814632032
C        1.7849248260   -1.0753860717    2.6565474456
C        1.7099504169   -1.0893605757    4.1386937575
C        2.0364600564    0.0366801026    6.2802072197
Cl       2.5013353024    1.4541907559    7.1800898260
H        1.9657829998   -1.0042027640   -1.2416914589
H       -0.0107437670   -1.9942214576   -0.1050618813
H        3.8233552323   -0.0537734675    0.1090023383
H        0.9102299635   -3.1460498382    6.7503922463
H       -0.1334267353   -2.0303699677    2.3675037429
H        3.7142212421   -0.1010311403    2.5803699670
H        1.0120405636   -3.1305844617    4.2741609954
H        1.5698551061   -1.1189198091    8.0349595167
H        2.4111827046    0.9424916681    4.3709226424
22   

C        1.9206992530   -1.0215346451   -0.1551111796
C        0.7461787738   -1.4430894927    0.4766870757
C        3.0222753036   -0.6282538679    0.6119907846
C        1.3713733154   -2.2834174630    6.2362283004
C        0.6758037405   -1.4740365758    1.8745322644
C        2.9496764741   -0.6598413111    2.0098414982
C        1.4162901045   -2.2798422720    4.8376390444
C        1.6161311019   -1.1020049557    6.9447877073
C        1.9521565290    0.0774595157    4.8619042498
C        1.7803512185   -1.0916433592    2.6528279085
C        1.6962753894   -1.0956750306    4.1372228300
C        1.9094783042    0.0825681794    6.2609724505
Cl       2.2213970979    1.5518275684    7.1436088821
H        1.9762060751   -0.9964859843   -1.2397771670
H       -0.1128230212   -1.7429914410   -0.1167172913
H        3.9343689007   -0.2973216396    0.1235730399
H        1.1506315935   -3.2030358914    6.7708374705
H       -0.2409781545   -1.7914943807    2.3625712995
H        3.8074776138   -0.3535328632    2.6014561891
H        1.2378699927   -3.1988156277    4.2868628335
H        1.5831795350   -1.0994123914    8.0302452603
H        2.1799738352    0.9975975707    4.3329682142
22   

C        1.9192678664   -1.0250349217   -0.1524263652
C        0.6987457804   -1.2834861356    0.4806388133
C        3.0676766646   -0.7967647150    0.6134054145
C        1.5297347851   -2.3117807094    6.2465354137
C        0.6289114095   -1.3160455670    1.8785134933
C        2.9950180581   -0.8299386576    2.0112568704
C        1.5732877159   -2.3113380562    4.8478669039
C        1.6226724782   -1.1039192511    6.9472270456
C        1.8045148969    0.0953266944    4.8563782518
C        1.7783251658   -1.0974185842    2.6530004908
C        1.7017855179   -1.1057792903    4.1420287539
C        1.7621384211    0.1042938961    6.2554909023
Cl       1.8846814920    1.6069852719    7.1283617596
H        1.9746031137   -0.9986984434   -1.2370704304
H       -0.1953826369   -1.4561284180   -0.1115540046
H        4.0157257157   -0.5922391057    0.1241747245
H        1.4267052538   -3.2484958334    6.7870784148
H       -0.3197954934   -1.5094285161    2.3706307315
H        3.8862784685   -0.6497371908    2.6053610993
H        1.5090692195   -3.2471148385    4.3001056300
H        1.5900363530   -1.0984912050    8.0326835754
H        1.9153681194    1.0314084909    4.3178791252
22   

C        1.9066783901   -1.0356912396   -0.1520775441
C        0.6687636882   -1.1029637324    0.4965345579
C        3.0863558275   -0.9889251629    0.5989535815
C        1.7064707154   -2.3235023865    6.2452077041
C        0.6122555796   -1.1235409782    1.8952476467
C        3.0269456168   -1.0096383108    1.9976995284
C        1.7616368403   -2.3127821488    4.8469766542
C        1.6219412102   -1.1165076197    6.9487184199
C        1.6479341077    0.1025515437    4.8614924501
C        1.7912002247   -1.0771869095    2.6538733323
C        1.7327031871   -1.0985959668    4.1458371986
C        1.5923063085    0.1013520267    6.2602018659
Cl       1.4870806726    1.6033678346    7.1364862785
H        1.9518030503   -1.0193162817   -1.2373897973
H       -0.2485464893   -1.1387932777   -0.0841815548
H        4.0485167943   -0.9360990432    0.0975348432
H        1.7292481768   -3.2671150948    6.7830871543
H       -0.3479405009   -1.1751176862    2.4002994267
H        3.9421800155   -0.9727445920    2.5814124988
H        1.8273113344   -3.2465225922    4.2958792884
H        1.5788645174   -1.1189558456    8.0338218991
H        1.6251473097    1.0456661003    4.3243209270
22   

C        1.8952459588   -1.0343611118   -0.1523753077
C        0.6718857778   -0.9045600316    0.5139937405
C        3.0785252798   -1.1721057300    0.5815562040
C        1.8839049530   -2.3111930949    6.2347644903
C        0.6335979653   -0.9101546355    1.9134280494
C        3.0377569419   -1.1773385784    1.9811261445
C        1.9557371563   -2.2794311863    4.8376350007
C        1.6203239592   -1.1350753084    6.9461785778
C        1.4988232171    0.0953948970    4.8689439585
C        1.8176335017   -1.0384836922    2.6556548496
C        1.7730643706   -1.0726723899    4.1455982304
C        1.4249509114    0.0724465840    6.2666173452
Cl       1.0895587528    1.5344827579    7.1525981211
H        1.9260044203   -1.0305598005   -1.2383071546
H       -0.2486017448   -0.8017471801   -0.0535580687
H        4.0290059050   -1.2760266431    0.0660552741
H        2.0296004533   -3.2478020377    6.7655875108
H       -0.3165104740   -0.8163223956    2.4313504246
H        3.9559622529   -1.2868143431    2.5508247669
H        2.1520451911   -3.1911141590    4.2807017474
H        1.5627594461   -1.1542748327    8.0304432690
H        1.3444001775    1.0303095086    4.3392565246
22   

C        1.8884048644   -1.0376191940   -0.1529688962
C        0.6997984496   -0.7361878902    0.5200117790
C        3.0439435614   -1.3410538063    0.5746732865
C        2.0399522519   -2.2666778300    6.2409709821
C        0.6688184309   -0.7352966724    1.9196055650
C        3.0108444324   -1.3396810485    1.9744145454
C        2.1151954163   -2.2309898005    4.8441296267
C        1.6241932403   -1.1319004010    6.9462049613
C        1.3575994468    0.0652586272    4.8632905594
C        1.8270618177   -1.0272932529    2.6580241702
C        1.7857186150   -1.0595287318    4.1437948490
C        1.2792649272    0.0377310158    6.2605666648
Cl       0.7536847469    1.4476907511    7.1385361912
H        1.9131806331   -1.0390198415   -1.2390603977
H       -0.2004533646   -0.5061933552   -0.0426959283
H        3.9672163953   -1.5785176786    0.0539791567
H        2.2998628193   -3.1754843100    6.7764607338
H       -0.2585159287   -0.5118927636    2.4390065482
H        3.9097149497   -1.5762151175    2.5361504638
H        2.4256391279   -3.1152293620    4.2950874462
H        1.5631900519   -1.1546507756    8.0302129025
H        1.0886950066    0.9730051031    4.3322489409
22   

C        1.8896778559   -1.0422977094   -0.1568786935
C        0.7456891379   -0.6022755858    0.5155986577
C        2.9934843295   -1.4960035696    0.5714637857
C        2.1733415701   -2.2324644301    6.2549062676
C        0.7071759389   -0.6144591702    1.9149359956
C        2.9531187944   -1.5079644976    1.9708843565
C        2.2346862575   -2.2058628176    4.8571913082
C        1.6387002847   -1.1435480910    6.9508944324
C        1.2273487985   -0.0092910405    4.8568201129
C        1.8123664720   -1.0628142956    2.6584295290
C        1.7677294487   -1.0902956136    4.1416390383
C        1.1625828023   -0.0282542729    6.2548443650
Cl       0.4950837967    1.3279270149    7.1211243007
H        1.9202260476   -1.0328708546   -1.2427841689
H       -0.1153024018   -0.2537671798   -0.0476391150
H        3.8838233035   -1.8377427532    0.0514118287
H        2.5370619527   -3.0998295435    6.7986134490
H       -0.1919335984   -0.2829552795    2.4256448808
H        3.8195616017   -1.8544672252    2.5259739940
H        2.6378744621   -3.0610536062    4.3231116980
H        1.5887042681   -1.1595054560    8.0355878770
H        0.8631034382    0.8642326949    4.3257491434
22   

C        1.8912038449   -1.0397534273   -0.1596783852
C        0.8004874769   -0.4813495636    0.5107397336
C        2.9272490707   -1.6258518554    0.5711046546
C        2.2884847691   -2.1603335085    6.2804746885
C        0.7459671063   -0.5101844849    1.9093087604
C        2.8711034708   -1.6545758090    1.9696351152
C        2.3269167383   -2.1565655716    4.8817038118
C        1.6531980863   -1.1209384851    6.9648801679
C        1.0986371916   -0.0795041059    4.8563782572
C        1.7773603220   -1.1009347000    2.6615884441
C        1.7289932977   -1.1180829508    4.1453811169
C        1.0564480260   -0.0760713853    6.2553311673
Cl       0.2718851050    1.2261951124    7.1063033905
H        1.9342344691   -1.0167379116   -1.2449603108
H       -0.0083649472   -0.0265064307   -0.0539703983
H        3.7804970311   -2.0549501120    0.0536117542
H        2.7496656499   -2.9731100077    6.8345091475
H       -0.1216779855   -0.0839341510    2.4023366934
H        3.7005476384   -2.0959817242    2.5122742678
H        2.8109281989   -2.9834446318    4.3721738834
H        1.6213027814   -1.1193395664    8.0503763068
H        0.6480289717    0.7548895553    4.3302408777
22   

C        1.8980539370   -1.0331298651   -0.1731794805
C        0.8839380880   -0.3551802701    0.5031449054
C        2.8495406465   -1.7490210707    0.5530044866
C        2.4093029844   -2.0737044956    6.2947489116
C        0.8195491796   -0.3959394278    1.9010808049
C        2.7840355390   -1.7892774224    1.9507151625
C        2.4309130914   -2.0844159633    4.8956159343
C        1.6731219710   -1.1039914409    6.9762151863
C        0.9868922705   -0.1583876916    4.8624002704
C        1.7593974203   -1.1220681199    2.6572113154
C        1.7116182910   -1.1353078037    4.1449256150
C        0.9605248647   -0.1411367210    6.2616280078
Cl       0.0522233747    1.0823471646    7.1068200445
H        1.9483925418   -1.0008403266   -1.2579143624
H        0.1398796771    0.2038811683   -0.0571119212
H        3.6478545810   -2.2703453960    0.0325134811
H        2.9640300568   -2.8234060944    6.8519825715
H       -0.0010176311    0.1319932671    2.3722055115
H        3.5657089735   -2.3344471774    2.4659452050
H        3.0013192048   -2.8699847392    4.4143486312
H        1.6540050129   -1.0917492951    8.0619490065
H        0.4427105665    0.6293880172    4.3567423971
22   

C        1.8784171973   -1.0458569514   -0.1862066325
C        1.0060271923   -0.2077082402    0.5047600917
C        2.7142781483   -1.9009917897    0.5282931341
C        2.5507678435   -1.9574362001    6.3014593339
C        0.9693463852   -0.2243208145    1.9043124404
C        2.6769274413   -1.9169263740    1.9274394225
C        2.5905390630   -1.9439128906    4.9026564373
C        1.6757431165   -1.1164500616    6.9865284063
C        0.8840314112   -0.2522162851    4.8756588357
C        1.8012636599   -1.0769674580    2.6562394865
C        1.7601218999   -1.0926428854    4.1478339143
C        0.8386673935   -0.2601985234    6.2744908911
Cl      -0.2587672183    0.7949710910    7.1225291407
H        1.9065146447   -1.0326063155   -1.2721484284
H        0.3512007965    0.4618654389   -0.0456729964
H        3.3973494004   -2.5576184709   -0.0030176382
H        3.2037850076   -2.6253843221    6.8561989470
H        0.2653820387    0.4556820527    2.3649123639
H        3.3550120830   -2.6070209005    2.4112649872
H        3.2944073284   -2.6238054809    4.4415912748
H        1.6420115966   -1.1241000230    8.0719522394
H        0.2064463495    0.4373913780    4.3918091099
