22   

C        1.8654162983   -1.0660875482   -0.1744318812
C        1.1522275554   -0.0843870631    0.5133809872
C        2.5628546813   -2.0384028301    0.5420544331
C        2.6657757384   -1.8148234387    6.3045494094
C        1.1394482465   -0.0730449816    1.9132880421
C        2.5495696248   -2.0259409390    1.9417598208
C        2.7295918291   -1.7829406733    4.9070282501
C        1.6636552458   -1.1135362048    6.9758559195
C        0.7918048883   -0.3553007749    4.8549483087
C        1.8458659547   -1.0347861920    2.6605102600
C        1.8023724922   -1.0437055815    4.1483916348
C        0.7214038015   -0.3824894188    6.2524947091
Cl      -0.5422085399    0.4823616735    7.0841138738
H        1.8746752024   -1.0752694309   -1.2607358540
H        0.6073076122    0.6756756702   -0.0392737494
H        3.1114793684   -2.8117597651    0.0120307538
H        3.3994025067   -2.3839477247    6.8686179396
H        0.5858646305    0.7243755122    2.3946060599
H        3.0826910367   -2.8219897525    2.4474999767
H        3.5384774339   -2.3277996827    4.4348711529
H        1.6101837328   -1.1359647804    8.0602779009
H        0.0182904713    0.2009936049    4.3405300774
22   

C        1.8817514742   -1.0657772367   -0.1571827211
C        1.2826718778   -0.0051043347    0.5261875568
C        2.4482365312   -2.1209267653    0.5616140281
C        2.7324625506   -1.6791319777    6.3070251584
C        1.2513589074    0.0003645067    1.9257567691
C        2.4167734406   -2.1137922572    1.9611915145
C        2.7884021354   -1.6678720082    4.9088814893
C        1.6576277780   -1.0792119695    6.9682458309
C        0.6999759951   -0.4606609823    4.8379388444
C        1.8215456537   -1.0507702391    2.6664203553
C        1.7750222552   -1.0547873246    4.1503950299
C        0.6368223571   -0.4682759505    6.2360808671
Cl      -0.7093886872    0.2722281443    7.0576378680
H        1.9054210604   -1.0707706291   -1.2432910285
H        0.8428522167    0.8184837144   -0.0290446124
H        2.9088454598   -2.9510316493    0.0336698436
H        3.5263902465   -2.1513810696    6.8787829626
H        0.7943941564    0.8456767959    2.4299465107
H        2.8442748525   -2.9573836097    2.4930433266
H        3.6417567909   -2.1249652479    4.4185080779
H        1.6096840955   -1.0859492104    8.0531314980
H       -0.1165358278   -0.0001395101    4.2926730938
22   

C        1.8897200136   -1.0596634884   -0.1503390023
C        1.4065293332    0.0545590759    0.5422181168
C        2.3238511197   -2.1843904412    0.5576543941
C        2.7969499929   -1.5620472889    6.2942062329
C        1.3560480750    0.0424516740    1.9411845361
C        2.2730961378   -2.1946860552    1.9567399235
C        2.8332146591   -1.5736498270    4.8954165028
C        1.6720166733   -1.0636534073    6.9590704344
C        0.6272971154   -0.5893240690    4.8319910376
C        1.7841173881   -1.0842979898    2.6639067469
C        1.7452959146   -1.0927938592    4.1473274417
C        0.5833066402   -0.5743056038    6.2308788968
Cl      -0.8177395834    0.0481645113    7.0584147660
H        1.9289592264   -1.0509009413   -1.2359700328
H        1.0731144061    0.9317404777   -0.0049439122
H        2.6990964283   -3.0516596295    0.0219493214
H        3.6434982253   -1.9361658813    6.8630873361
H        0.9914947386    0.9190069479    2.4683163204
H        2.6050374325   -3.0769827592    2.4955170692
H        3.7160013261   -1.9487906578    4.3863892034
H        1.6391618144   -1.0522493560    8.0444766710
H       -0.2259855331   -0.2151733227    4.2755081386
22   

C        1.8855136441   -1.0596032672   -0.1460418755
C        1.5405707875    0.1011460691    0.5541189989
C        2.1698195833   -2.2372083263    0.5533977062
C        2.8303650497   -1.4267491244    6.2874853152
C        1.4770951358    0.0822081567    1.9524893762
C        2.1058357766   -2.2540346478    1.9519652146
C        2.8579240961   -1.4524009743    4.8886683277
C        1.6604418201   -1.0480187394    6.9551465841
C        0.5543650331   -0.7193773442    4.8311527382
C        1.7495135613   -1.0986058406    2.6620860418
C        1.7150827967   -1.1100584424    4.1483505031
C        0.5185943111   -0.6907298155    6.2301414876
Cl      -0.9352222584   -0.2112144410    7.0617293947
H        1.9354699445   -1.0456403621   -1.2311776010
H        1.3252869945    1.0185047281    0.0136598890
H        2.4409841390   -3.1388864481    0.0117410142
H        3.7173676060   -1.6963662558    6.8538456165
H        1.2199623480    0.9881238988    2.4936315396
H        2.3276634052   -3.1699198725    2.4917897403
H        3.7693698996   -1.7340220469    4.3693823712
H        1.6340815059   -1.0255562710    8.0405557262
H       -0.3318884806   -0.4409187389    4.2696067021
22   

C        1.8867709524   -1.0679392338   -0.1450568613
C        1.7113648335    0.1298654008    0.5563513018
C        2.0049141732   -2.2746447376    0.5532629866
C        2.8667302442   -1.2676092104    6.2912661645
C        1.6518194828    0.1191497109    1.9550143484
C        1.9449554594   -2.2828230205    1.9521273889
C        2.9005042663   -1.2904607791    4.8925173744
C        1.6558375091   -1.0417380830    6.9557740257
C        0.5214062063   -0.8600980809    4.8288795769
C        1.7601612421   -1.0886231026    2.6611787249
C        1.7249479228   -1.0963011851    4.1517417739
C        0.4787517068   -0.8353059104    6.2278145494
Cl      -1.0266969643   -0.5468259707    7.0557075191
H        1.9335304100   -1.0606867544   -1.2304000570
H        1.6236366369    1.0685307803    0.0167273941
H        2.1441696185   -3.2053432368    0.0107116083
H        3.7794910810   -1.4220112275    6.8598276826
H        1.5225429421    1.0494941281    2.5004496622
H        2.0392116570   -3.2192089659    2.4942907413
H        3.8393015080   -1.4573400988    4.3722401147
H        1.6241534518   -1.0222414162    8.0410977768
H       -0.3898110699   -0.6969844719    4.2618173449
22   

C        1.8770478939   -1.0790291047   -0.1465643437
C        1.9016239310    0.1358288141    0.5471119663
C        1.8125647811   -2.2849798792    0.5601396573
C        2.8893632139   -1.0907735485    6.3028693066
C        1.8618624204    0.1430628137    1.9465281020
C        1.7729046765   -2.2749138918    1.9597074196
C        2.9384748042   -1.0969406571    4.9043882578
C        1.6527462349   -1.0437505786    6.9567087056
C        0.5233633272   -1.0093516685    4.8197192272
C        1.7974820640   -1.0625048667    2.6608618016
C        1.7546367197   -1.0562277842    4.1535174278
C        0.4647954267   -1.0028532006    6.2182965101
Cl      -1.0740685082   -0.9443516690    7.0328368128
H        1.9075195321   -1.0859042331   -1.2324887976
H        1.9510867113    1.0734274828    0.0008188275
H        1.7928036193   -3.2292925419    0.0236256888
H        3.8095818389   -1.1224348743    6.8794395469
H        1.8802448282    1.0852815428    2.4865289487
H        1.7222298955   -3.2105621938    2.5090050103
H        3.8954001605   -1.1333551326    4.3916878049
H        1.6087908097   -1.0387553196    8.0417682438
H       -0.3963963269   -0.9776985789    4.2438936497
22   

C        1.8731346453   -1.0909382933   -0.1472263853
C        2.0889039742    0.1088118790    0.5392730251
C        1.6243260318   -2.2681091553    0.5667833050
C        2.8687709162   -0.9165679231    6.3128431992
C        2.0583118205    0.1291716269    1.9387864214
C        1.5943170046   -2.2449175878    1.9664019163
C        2.9311753123   -0.9102793640    4.9149019638
C        1.6320426739   -1.0465394739    6.9548325341
C        0.5293714620   -1.1658414705    4.8070943627
C        1.8187629009   -1.0492129978    2.6618444988
C        1.7598458739   -1.0256666352    4.1515139173
C        0.4575634494   -1.1734167216    6.2050127185
Cl      -1.0810103876   -1.3420718100    7.0046058894
H        1.8958124971   -1.1078960713   -1.2332311930
H        2.2773611140    1.0251405196   -0.0128043414
H        1.4528452137   -3.2001513831    0.0358728797
H        3.7792001900   -0.8234468827    6.8982350832
H        2.2185236723    1.0616579471    2.4720990915
H        1.3981887009   -3.1585246940    2.5201466116
H        3.8896242108   -0.8171913737    4.4123534667
H        1.5778623057   -1.0526419080    8.0394235255
H       -0.3804250791   -1.2668497787    4.2234965362
22   

C        1.8694849999   -1.0925232641   -0.1504216596
C        2.2486649544    0.0630313525    0.5404302917
C        1.4553598218   -2.2245655836    0.5591918504
C        2.8387930701   -0.7581385698    6.3065432117
C        2.2164639975    0.0840298570    1.9398600882
C        1.4237793720   -2.2013147997    1.9587349258
C        2.8980574286   -0.7532402354    4.9084903479
C        1.6299327942   -1.0399287211    6.9522647565
C        0.5484456335   -1.3134684634    4.8079695611
C        1.8127546079   -1.0512419071    2.6610595672
C        1.7496278639   -1.0200745335    4.1461833151
C        0.4805134111   -1.3207077229    6.2060283467
Cl      -1.0228576525   -1.6787247257    7.0102440012
H        1.8934488549   -1.1097338555   -1.2363954108
H        2.5646222961    0.9455624280   -0.0084447227
H        1.1572401910   -3.1220577498    0.0247616839
H        3.7310323436   -0.5472811680    6.8893632320
H        2.5010967537    0.9860791670    2.4734715757
H        1.1014988745   -3.0826541604    2.5055725612
H        3.8385012202   -0.5460173430    4.4061712765
H        1.5785994932   -1.0456911591    8.0369965303
H       -0.3444823579   -1.5316001251    4.2305386709
22   

C        1.8715360358   -1.0859443859   -0.1512518785
C        2.3880267041    0.0066971367    0.5515153595
C        1.3148516070   -2.1618507874    0.5467504798
C        2.8069732566   -0.6236050075    6.3006282481
C        2.3490331427    0.0215750458    1.9508241655
C        1.2761858274   -2.1451782616    1.9461494174
C        2.8568930247   -0.6267729449    4.9022175546
C        1.6425383700   -1.0328779271    6.9583088662
C        0.5855663928   -1.4481488630    4.8249217084
C        1.7967097633   -1.0559966020    2.6642813309
C        1.7438329276   -1.0338390520    4.1472658351
C        0.5277221528   -1.4477012924    6.2233736597
Cl      -0.9228404801   -1.9585156167    7.0420163138
H        1.9013190043   -1.0983314538   -1.2371487695
H        2.8166370798    0.8462356741    0.0116815580
H        0.9133665373   -3.0123905897    0.0032563168
H        3.6731807829   -0.3070612128    6.8748343688
H        2.7412006917    0.8809648303    2.4861585508
H        0.8492363457   -2.9910388848    2.4765693195
H        3.7688370405   -0.3207568280    4.3983249223
H        1.5988186683   -1.0323076518    8.0433894888
H       -0.2880366908   -1.7632570530    4.2634459776
22   

C        1.9239997934   -1.0574224520   -0.1569316940
C        1.4077227368   -2.1643801927    0.5207301058
C        2.3712414630    0.0508014716    0.5661464061
C        0.6237508770   -1.7473949164    6.2200375120
C        1.3402876313   -2.1631384872    1.9190909397
C        2.3038782206    0.0506260282    1.9644159940
C        0.6905682263   -1.7505492517    4.8223177582
C        1.5760798460   -1.0456483090    6.9636233154
C        2.6567440513   -0.3549028527    4.9160461501
C        1.7917720734   -1.0585517889    2.6638525530
C        1.7058053476   -1.0507126246    4.1459949538
C        2.5968406015   -0.3472828041    6.3143275236
Cl       3.7912893547    0.5208861951    7.2390697646
H        1.9761455278   -1.0577131898   -1.2420573507
H        1.0610803969   -3.0289384216   -0.0381411834
H        2.7670837049    0.9163785296    0.0425980969
H       -0.1706362047   -2.2877284346    6.7272244670
H        0.9504761490   -3.0433316985    2.4196607443
H        2.6374063480    0.9341486325    2.4989613695
H       -0.0706765321   -2.2883848022    4.2666365320
H        1.5284373836   -1.0406398924    8.0485330311
H        3.4721087277    0.1759623859    4.4369637238
22   

C        1.9156452728   -1.0542984521   -0.1662575781
C        1.2709786001   -2.0915273478    0.5077698139
C        2.4950791015   -0.0158049454    0.5625104478
C        0.7185242832   -1.8558911450    6.2391497437
C        1.2098223391   -2.0926732371    1.9065387034
C        2.4336025075   -0.0179139721    1.9609020246
C        0.7809404749   -1.8549160517    4.8411146162
C        1.5880792842   -1.0544031627    6.9797542391
C        2.5811410502   -0.2583024657    4.9273793636
C        1.8001875817   -1.0645926496    2.6658985752
C        1.7043515320   -1.0469758786    4.1511526046
C        2.5246966543   -0.2539980071    6.3257403055
Cl       3.6247255881    0.7363880755    7.2451337760
H        1.9627839224   -1.0532325165   -1.2516169654
H        0.8175688358   -2.9025499479   -0.0549556158
H        2.9887278674    0.8006273520    0.0430810006
H       -0.0102992496   -2.4793370548    6.7494622226
H        0.7135392604   -2.9328578515    2.3769508353
H        2.8717601736    0.8285103606    2.4764713978
H        0.0704108702   -2.4803820790    4.3141090627
H        1.5429119448   -1.0524912716    8.0647838714
H        3.3463403410    0.3552200854    4.4682299291
22   

C        1.9066897861   -1.0512421181   -0.1814875752
C        1.1046496903   -1.9741638578    0.4866264856
C        2.6490890221   -0.1307510630    0.5549118133
C        0.8516739245   -1.9949097977    6.2463883529
C        1.0447041234   -1.9772421068    1.8855660477
C        2.5889504959   -0.1340584190    1.9532761401
C        0.9131400034   -1.9899804494    4.8482249835
C        1.5934333123   -1.0745799089    6.9849147065
C        2.4552891042   -0.1477294632    4.9289771434
C        1.7831880809   -1.0595884639    2.6581512216
C        1.7155819753   -1.0676806849    4.1487511403
C        2.3985609861   -0.1469637682    6.3273484657
Cl       3.3294167767    1.0075404933    7.2424803201
H        1.9528254176   -1.0493394169   -1.2668931114
H        0.5232280334   -2.6946606563   -0.0815955092
H        3.2768697501    0.5920529181    0.0415463876
H        0.2237883218   -2.7183098982    6.7590148436
H        0.3992692318   -2.7247019047    2.3263737743
H        3.1928555318    0.6098623292    2.4556234575
H        0.3093224665   -2.7342625275    4.3468612881
H        1.5479746796   -1.0756903606    8.0699381710
H        3.0998821685    0.5991728666    4.4867137965
22   

C        1.9088797776   -1.0314821109   -0.1735918641
C        0.9646761466   -1.8224463557    0.4811012774
C        2.7932598480   -0.2547452226    0.5746718246
C        0.9965260003   -2.1238575330    6.2350906360
C        0.9020282450   -1.8333067174    1.8797617453
C        2.7297175564   -0.2660472517    1.9729325241
C        1.0591569178   -2.1112358131    4.8371189776
C        1.5965067523   -1.1024143217    6.9724765616
C        2.3147991972   -0.0581865958    4.9167787356
C        1.7727584943   -1.0465709340    2.6575503920
C        1.7304121220   -1.0857127287    4.1448657394
C        2.2562170462   -0.0640216087    6.3150453157
Cl       2.9928656054    1.2234309367    7.2293846105
H        1.9577443852   -1.0234068086   -1.2588461116
H        0.2738186431   -2.4296637011   -0.0968289150
H        3.5382715499    0.3546423828    0.0710251816
H        0.4825451013   -2.9319185173    6.7480713954
H        0.1365871428   -2.4511889019    2.3334194845
H        3.4604041792    0.3305960970    2.5061845531
H        0.5938163508   -2.9380281763    4.3139984242
H        1.5498663614   -1.1085171592    8.0574287584
H        2.8100500273    0.7856811523    4.4526754038
22   

C        1.9067429554   -1.0300689734   -0.1593742976
C        0.8725363134   -1.7061702237    0.4920847157
C        2.8818206767   -0.3680829104    0.5902992377
C        1.1245263690   -2.1862753215    6.2345777720
C        0.8132419300   -1.7187954840    1.8907538739
C        2.8211104982   -0.3809024939    1.9888179862
C        1.1819078091   -2.1745217916    4.8364758645
C        1.6113102287   -1.0979222142    6.9631944608
C        2.2089703526    0.0081459535    4.8999768025
C        1.7828766061   -1.0524508686    2.6617666373
C        1.7291517812   -1.0788016672    4.1451978944
C        2.1547365337    0.0039509871    6.2984906002
Cl       2.7538902358    1.3665741921    7.2039519549
H        1.9534559790   -1.0203273037   -1.2447036984
H        0.1111728576   -2.2201871934   -0.0876331833
H        3.6915515558    0.1531094079    0.0875955933
H        0.7046366583   -3.0431313510    6.7539400955
H       -0.0107300029   -2.2374949200    2.3695900791
H        3.6046639953    0.1226131303    2.5456904293
H        0.8135446719   -3.0389460509    4.2936855379
H        1.5685521014   -1.1024613007    8.0483082102
H        2.6144681673    0.8850538307    4.4072667031
22   

C        1.9148328473   -1.0233582762   -0.1566801917
C        0.8042225648   -1.5818668601    0.4829403481
C        2.9589442982   -0.4878009865    0.6033781367
C        1.2366794996   -2.2518682019    6.2268471833
C        0.7396445688   -1.6059214805    1.8811715718
C        2.8925769064   -0.5122083139    2.0016254499
C        1.2895635568   -2.2390873059    4.8286056275
C        1.6090492144   -1.1140092897    6.9497164001
C        2.0867037761    0.0414970416    4.8814632788
C        1.7849248260   -1.0753860717    2.6565474456
C        1.7099504169   -1.0893605757    4.1386937575
C        2.0364597625    0.0366801218    6.2802072921
Cl       2.5013348155    1.4541908088    7.1800899417
H        1.9657810563   -1.0041993143   -1.2416915436
H       -0.0107442574   -1.9942207400   -0.1050618301
H        3.8233525404   -0.0537684152    0.1090021649
H        0.9102299470   -3.1460499141    6.7503921966
H       -0.1334262130   -2.0303710152    2.3675037627
H        3.7142195559   -0.1010277422    2.5803697335
H        1.0120406607   -3.1305844899    4.2741609940
H        1.5698548325   -1.1189198547    8.0349595482
H        2.4111823965    0.9424918064    4.3709228313
22   

C        1.9206984837   -1.0215326168   -0.1551112013
C        0.7461784510   -1.4430886670    0.4766870751
C        3.0222743123   -0.6282512126    0.6119907491
C        1.3713732002   -2.2834174538    6.2362282959
C        0.6758037405   -1.4740365758    1.8745322644
C        2.9496757745   -0.6598394304    2.0098414593
C        1.4162901045   -2.2798422720    4.8376390444
C        1.6161308420   -1.1020049252    6.9447877110
C        1.9521563241    0.0774595617    4.8619042720
C        1.7803512185   -1.0916433592    2.6528279085
C        1.6962753894   -1.0956750306    4.1372228300
C        1.9094779898    0.0825682306    6.2609724714
Cl       2.2213965854    1.5518276559    7.1436089159
H        1.9762050991   -0.9964834106   -1.2397771864
H       -0.1128232555   -1.7429908964   -0.1167172779
H        3.9343675077   -0.2973178867    0.1235729965
H        1.1506314954   -3.2030358896    6.7708374582
H       -0.2409778822   -1.7914951589    2.3625713038
H        3.8074767213   -0.3535303638    2.6014561089
H        1.2378700697   -3.1988156411    4.2868628316
H        1.5831791939   -1.0994123639    8.0302452625
H        2.1799735766    0.9975976547    4.3329682789
22   

C        1.9192676947   -1.0250340575   -0.1524263604
C        0.6987457175   -1.2834858017    0.4806388136
C        3.0676764312   -0.7967635726    0.6134054244
C        1.5297346408   -2.3117807091    6.2465354081
C        0.6289114095   -1.3160455670    1.8785134933
C        2.9950178878   -0.8299378531    2.0112568742
C        1.5732877159   -2.3113380562    4.8478669039
C        1.6226721560   -1.1039192330    6.9472270356
C        1.8045146124    0.0953267205    4.8563782437
C        1.7783251658   -1.0974185842    2.6530004908
C        1.7017855179   -1.1057792903    4.1420287539
C        1.7621380155    0.1042939246    6.2554908886
Cl       1.8846808272    1.6069853277    7.1283617293
H        1.9746028970   -0.9986973156   -1.2370704221
H       -0.1953826693   -1.4561282133   -0.1115540125
H        4.0157253796   -0.5922374667    0.1241747424
H        1.4267051451   -3.2484958464    6.7870783973
H       -0.3197954263   -1.5094288544    2.3706307277
H        3.8862782482   -0.6497361237    2.6053610990
H        1.5090693563   -3.2471148455    4.3001056260
H        1.5900359419   -1.0984911752    8.0326835629
H        1.9153677279    1.0314085325    4.3178791211
22   

C        1.9066783854   -1.0356912579   -0.1520775471
C        0.6687636846   -1.1029637456    0.4965345586
C        3.0863558240   -0.9889251780    0.5989535766
C        1.7064706975   -2.3235023879    6.2452077043
C        0.6122555796   -1.1235409782    1.8952476467
C        3.0269456163   -1.0096383172    1.9976995246
C        1.7616368403   -2.3127821488    4.8469766542
C        1.6219411773   -1.1165076229    6.9487184178
C        1.6479340748    0.1025515394    4.8614924511
C        1.7912002247   -1.0771869095    2.6538733323
C        1.7327031871   -1.0985959668    4.1458371986
C        1.5923062680    0.1013520257    6.2602018661
Cl       1.4870806221    1.6033678368    7.1364862745
H        1.9518030450   -1.0193163129   -1.2373898003
H       -0.2485464957   -1.1387932930   -0.0841815483
H        4.0485167914   -0.9360990709    0.0975348384
H        1.7292481513   -3.2671150944    6.7830871602
H       -0.3479404999   -1.1751176759    2.4002994296
H        3.9421800180   -0.9727445952    2.5814124899
H        1.8273113456   -3.2465225917    4.2958792890
H        1.5788644789   -1.1189558521    8.0338218962
H        1.6251472467    1.0456660947    4.3243209285
22   

C        1.8952457933   -1.0343621526   -0.1523753353
C        0.6718856967   -0.9045604689    0.5139937412
C        3.0785250914   -1.1721070488    0.5815561583
C        1.8839049729   -2.3111930800    6.2347644929
C        0.6335979653   -0.9101546355    1.9134280494
C        3.0377568224   -1.1773394844    1.9811261062
C        1.9557371563   -2.2794311863    4.8376350007
C        1.6203240792   -1.1350752751    6.9461785840
C        1.4988234001    0.0953949344    4.8689439694
C        1.8176335017   -1.0384836922    2.6556548496
C        1.7730643706   -1.0726723899    4.1455982304
C        1.4249511456    0.0724466356    6.2666173573
Cl       1.0895591993    1.5344828486    7.1525981482
H        1.9260041977   -1.0305611423   -1.2383071844
H       -0.2486018297   -0.8017475021   -0.0535580385
H        4.0290056442   -1.2760285052    0.0660552066
H        2.0296004104   -3.2478020290    6.7655875189
H       -0.3165104263   -0.8163219993    2.4313504401
H        3.9559621151   -1.2868155247    2.5508247030
H        2.1520451314   -3.1911141768    4.2807017555
H        1.5627595717   -1.1542747931    8.0304432759
H        1.3444004447    1.0303095646    4.3392565463
22   

C        1.8884043113   -1.0376212611   -0.1529689199
C        0.6997982231   -0.7361887163    0.5200117752
C        3.0439428343   -1.3410565441    0.5746732540
C        2.0399523213   -2.2666777955    6.2409709858
C        0.6688184309   -0.7352966724    1.9196055650
C        3.0108439048   -1.3396830029    1.9744145107
C        2.1151954163   -2.2309898005    4.8441296267
C        1.6241934285   -1.1319003284    6.9462049669
C        1.3575996159    0.0652586844    4.8632905653
C        1.8270618177   -1.0272932529    2.6580241702
C        1.7857186150   -1.0595287318    4.1437948490
C        1.2792651728    0.0377311060    6.2605666725
Cl       0.7536851601    1.4476908977    7.1385362060
H        1.9131799357   -1.0390224575   -1.2390604217
H       -0.2004535213   -0.5061938612   -0.0426959134
H        3.9672153753   -1.5785215657    0.0539791282
H        2.2998628570   -3.1754842822    6.7764607429
H       -0.2585157289   -0.5118919531    2.4390065554
H        3.9097142585   -1.5762177402    2.5361504098
H        2.4256390319   -3.1152294092    4.2950874690
H        1.5631902960   -1.1546506797    8.0302129111
H        1.0886952412    0.9730051798    4.3322489477
22   

C        1.8896766231   -1.0423005133   -0.1568788095
C        0.7456886125   -0.6022767165    0.5155986326
C        2.9934827595   -1.4960072640    0.5714636085
C        2.1733416899   -2.2324643595    6.2549062740
C        0.7071759389   -0.6144591702    1.9149359956
C        2.9531176995   -1.5079671418    1.9708842031
C        2.2346862575   -2.2058628176    4.8571913082
C        1.6387005309   -1.1435479648    6.9508944452
C        1.2273489560   -0.0092909652    4.8568201215
C        1.8123664720   -1.0628142956    2.6584295290
C        1.7677294487   -1.0902956136    4.1416390383
C        1.1625830673   -0.0282541446    6.2548443775
Cl       0.4950842407    1.3279272241    7.1211243214
H        1.9202244541   -1.0328744399   -1.2427843019
H       -0.1153028079   -0.2537679336   -0.0476390888
H        3.8838211015   -1.8377479902    0.0514115823
H        2.5370620707   -3.0998294675    6.7986134630
H       -0.1919331725   -0.2829541857    2.4256449174
H        3.8195602358   -1.8544707519    2.5259737070
H        2.6378743376   -3.0610537010    4.3231117620
H        1.5887046063   -1.1595052845    8.0355878938
H        0.8631036429    0.8642327936    4.3257491646
22   

C        1.8912022170   -1.0397561893   -0.1596785738
C        0.8004868029   -0.4813506569    0.5107396862
C        2.9272469740   -1.6258555375    0.5711043684
C        2.2884848451   -2.1603334403    6.2804746969
C        0.7459671063   -0.5101844849    1.9093087604
C        2.8711020069   -1.6545784705    1.9696348723
C        2.3269167383   -2.1565655716    4.8817038118
C        1.6531982782   -1.1209383527    6.9648801822
C        1.0986373090   -0.0795040359    4.8563782708
C        1.7773603220   -1.1009347000    2.6615884441
C        1.7289932977   -1.1180829508    4.1453811169
C        1.0564482343   -0.0760712508    6.2553311798
Cl       0.2718854511    1.2261953357    7.1063033929
H        1.9342323793   -1.0167414276   -1.2449605334
H       -0.0083654411   -0.0265071096   -0.0539703691
H        3.7804940889   -2.0549553365    0.0536113514
H        2.7496656950   -2.9731099504    6.8345091663
H       -0.1216774145   -0.0839330394    2.4023367275
H        3.7005458312   -2.0959853168    2.5122737736
H        2.8109280942   -2.9834447762    4.3721740380
H        1.6213030534   -1.1193393905    8.0503763245
H        0.6480291128    0.7548896582    4.3302409282
22   

C        1.8980523808   -1.0331318250   -0.1731796753
C        0.8839374411   -0.3551810410    0.5031448578
C        2.8495386411   -1.7490237157    0.5530041900
C        2.4093029328   -2.0737045241    6.2947489144
C        0.8195491796   -0.3959394278    1.9010808049
C        2.7840341377   -1.7892793707    1.9507149199
C        2.4309130914   -2.0844159633    4.8956159343
C        1.6731218279   -1.1039915545    6.9762152046
C        0.9868921811   -0.1583877610    4.8624002977
C        1.7593974203   -1.1220681199    2.6572113154
C        1.7116182910   -1.1353078037    4.1449256150
C        0.9605246798   -0.1411368692    6.2616280321
Cl       0.0522229996    1.0823468715    7.1068200727
H        1.9483905397   -1.0008428018   -1.2579145937
H        0.1398792053    0.2038807122   -0.0571118863
H        3.6478517552   -2.2703491543    0.0325130422
H        2.9640300347   -2.8234060975    6.8519825755
H       -0.0010170760    0.1319940968    2.3722055332
H        3.5657071832   -2.3344499116    2.4659447027
H        3.0013192958   -2.8699847444    4.4143487749
H        1.6540048300   -1.0917494611    8.0619490251
H        0.4427104451    0.6293879648    4.3567424913
22   

C        1.8784171872   -1.0458569581   -0.1862066317
C        1.0060271871   -0.2077082436    0.5047600923
C        2.7142781413   -1.9009917942    0.5282931343
C        2.5507678368   -1.9574362065    6.3014593355
C        0.9693463852   -0.2243208145    1.9043124404
C        2.6769274406   -1.9169263743    1.9274394220
C        2.5905390630   -1.9439128906    4.9026564373
C        1.6757431047   -1.1164500706    6.9865284076
C        0.8840314134   -0.2522162817    4.8756588363
C        1.8012636599   -1.0769674580    2.6562394865
C        1.7601218999   -1.0926428854    4.1478339143
C        0.8386673888   -0.2601985260    6.2744908914
Cl      -0.2587672272    0.7949710877    7.1225291398
H        1.9065146314   -1.0326063302   -1.2721484287
H        0.3512007892    0.4618654376   -0.0456729937
H        3.3973493917   -2.5576184790   -0.0030176380
H        3.2037849976   -2.6253843287    6.8561989544
H        0.2653820414    0.4556820520    2.3649123686
H        3.3550120861   -2.6070208966    2.4112649890
H        3.2944073296   -2.6238054795    4.4415912748
H        1.6420115741   -1.1241000381    8.0719522397
H        0.2064463617    0.4373913907    4.3918091110
