22   

C        1.8654107070   -1.0660919728   -0.1744317201
C        1.1522253412   -0.0843888647    0.5133809806
C        2.5628471749   -2.0384085671    0.5420547491
C        2.6657743787   -1.8148250911    6.3045493088
C        1.1394482465   -0.0730449816    1.9132880421
C        2.5495641281   -2.0259449710    1.9417601455
C        2.7295918291   -1.7829406733    4.9070282501
C        1.6636518627   -1.1135403865    6.9758555094
C        0.7918018185   -0.3553048770    4.8549477785
C        1.8458659547   -1.0347861920    2.6605102600
C        1.8023724922   -1.0437055815    4.1483916348
C        0.7213994111   -0.3824950377    6.2524940873
Cl      -0.5422157315    0.4823523545    7.0841128509
H        1.8746681357   -1.0752751170   -1.2607356943
H        0.6073062950    0.6756744148   -0.0392738885
H        3.1114687009   -2.8117678328    0.0120312018
H        3.3994015846   -2.3839486722    6.8686179884
H        0.5858670994    0.7243770280    2.3946064862
H        3.0826832888   -2.8219949177    2.4475009744
H        3.5384785779   -2.3277977414    4.4348707648
H        1.6101793747   -1.1359700614    8.0602774186
H        0.0182865935    0.2009878255    4.3405288777
22   

C        1.8817632030   -1.0657701254   -0.1571827552
C        1.2826765480   -0.0051013406    0.5261876561
C        2.4482520625   -2.1209176861    0.5616138237
C        2.7324606048   -1.6791348349    6.3070250674
C        1.2513589074    0.0003645067    1.9257567691
C        2.4167846060   -2.1137859608    1.9611912291
C        2.7884021354   -1.6678720082    4.9088814893
C        1.6576232373   -1.0792191347    6.9682454531
C        0.6999719704   -0.4606678125    4.8379383576
C        1.8215456537   -1.0507702391    2.6664203553
C        1.7750222552   -1.0547873246    4.1503950299
C        0.6368165786   -0.4682854248    6.2360802798
Cl      -0.7093980652    0.2722125637    7.0576368788
H        1.9054359726   -1.0707615100   -1.2432910023
H        0.8428551200    0.8184859050   -0.0290443059
H        2.9088674806   -2.9510189110    0.0336695431
H        3.5263888225   -2.1513828251    6.8787830568
H        0.7943894089    0.8456740907    2.4299467550
H        2.8442899314   -2.9573757601    2.4930423084
H        3.6417587755   -2.1249622566    4.4185088055
H        1.6096782959   -1.0859583192    8.0531310525
H       -0.1165409014   -0.0001487158    4.2926721588
22   

C        1.8897658549   -1.0596428883   -0.1503380406
C        1.4065478064    0.0545677760    0.5422188610
C        2.3239114122   -2.1843641551    0.5576552528
C        2.7969478223   -1.5620513265    6.2942062345
C        1.3560480750    0.0424516740    1.9411845361
C        2.2731391257   -2.1946676951    1.9567400846
C        2.8332146591   -1.5736498270    4.8954165028
C        1.6720118236   -1.0636632619    6.9590702706
C        0.6272929478   -0.5893330474    4.8319907842
C        1.7841173881   -1.0842979898    2.6639067469
C        1.7452959146   -1.0927938592    4.1473274417
C        0.5833006069   -0.5743183064    6.2308786101
Cl      -0.8177493262    0.0481437368    7.0584142772
H        1.9290176958   -1.0508744446   -1.2359685676
H        1.0731264995    0.9317470633   -0.0049426690
H        2.6991818027   -3.0516227775    0.0219506408
H        3.6434965432   -1.9361685026    6.8630875480
H        0.9914768083    0.9189996893    2.4683159549
H        2.6050947236   -3.0769597662    2.4955159294
H        3.7160039364   -1.9487862147    4.3863905546
H        1.6391556071   -1.0522619614    8.0444764949
H       -0.2259909151   -0.2151853120    4.2755077424
22   

C        1.8855953254   -1.0595792125   -0.1460389147
C        1.5406038717    0.1011562775    0.5541206318
C        2.1699267716   -2.2371775519    0.5534012261
C        2.8303637139   -1.4267526091    6.2874853635
C        1.4770951358    0.0822081567    1.9524893762
C        2.1059119842   -2.2540129000    1.9519671835
C        2.8579240961   -1.4524009743    4.8886683277
C        1.6604388530   -1.0480272283    6.9551466109
C        0.5543624244   -0.7193851058    4.8311527162
C        1.7495135613   -1.0986058406    2.6620860418
C        1.7150827967   -1.1100584424    4.1483505031
C        0.5185905880   -0.6907407908    6.2301414945
Cl      -0.9352282914   -0.2112324348    7.0617294130
H        1.9355742356   -1.0456094260   -1.2311735105
H        1.3253090430    1.0185125893    0.0136619392
H        2.4411359195   -3.1388433140    0.0117462781
H        3.7173665715   -1.6963684919    6.8538457851
H        1.2199307075    0.9881155759    2.4936304095
H        2.3277648153   -3.1698921570    2.4917914507
H        3.7693716064   -1.7340180739    4.3693832513
H        1.6340777279   -1.0255671026    8.0405557805
H       -0.3318919546   -0.4409291608    4.2696067543
22   

C        1.8868480098   -1.0679288213   -0.1450540435
C        1.7113961924    0.1298698679    0.5563526633
C        2.0050150747   -2.2746314414    0.5532665454
C        2.8667299497   -1.2676106581    6.2912661786
C        1.6518194828    0.1191497109    1.9550143484
C        1.9450270731   -2.2828135403    1.9521296566
C        2.9005042663   -1.2904607791    4.8925173744
C        1.6558368555   -1.0417415129    6.9557740509
C        0.5214056312   -0.8601011208    4.8288795890
C        1.7601612421   -1.0886231026    2.6611787249
C        1.7249479228   -1.0963011851    4.1517417739
C        0.4787508938   -0.8353102478    6.2278145785
Cl      -1.0266982842   -0.5468330334    7.0557075752
H        1.9336288912   -1.0606733538   -1.2303962970
H        1.6236578704    1.0685343294    0.0167288076
H        2.1443125051   -3.2053246338    0.0107168392
H        3.7794908570   -1.4220122004    6.8598277119
H        1.5225132673    1.0494906139    2.5004486153
H        2.0393069300   -3.2191968061    2.4942935211
H        3.8393019066   -1.4573384408    4.3722402994
H        1.6241526113   -1.0222458213    8.0410978146
H       -0.3898118869   -0.6969885726    4.2618174581
22   

C        1.8770476692   -1.0790290886   -0.1465643537
C        1.9016238323    0.1358288225    0.5471119635
C        1.8125644992   -2.2849798636    0.5601396437
C        2.8893632291   -1.0907735769    6.3028693066
C        1.8618624204    0.1430628137    1.9465281020
C        1.7729044797   -2.2749138819    1.9597074095
C        2.9384748042   -1.0969406571    4.9043882578
C        1.6527462561   -1.0437505879    6.9567087123
C        0.5233633368   -1.0093515983    4.8197192385
C        1.7974820640   -1.0625048667    2.6608618016
C        1.7546367197   -1.0562277842    4.1535174278
C        0.4647954482   -1.0028531435    6.2182965216
Cl      -1.0740684761   -0.9443515510    7.0328368350
H        1.9075192331   -1.0859042090   -1.2324888098
H        1.9510866214    1.0734274926    0.0008188269
H        1.7928032164   -3.2292925205    0.0236256711
H        3.8095818541   -1.1224349544    6.8794395428
H        1.8802449029    1.0852815359    2.4865289582
H        1.7222296315   -3.2105621834    2.5090049950
H        3.8954001511   -1.1333551549    4.3916877890
H        1.6087908368   -1.0387553589    8.0417682502
H       -0.3963963221   -0.9776984440    4.2438936724
22   

C        1.8730591817   -1.0909226117   -0.1472287766
C        2.0888733019    0.1088184782    0.5392722500
C        1.6242271818   -2.2680889274    0.5667800569
C        2.8687709224   -0.9165660804    6.3128432126
C        2.0583118205    0.1291716269    1.9387864214
C        1.5942468738   -2.2449031936    1.9663993668
C        2.9311753123   -0.9102793640    4.9149019638
C        1.6320425264   -1.0465349016    6.9548327566
C        0.5293710137   -1.1658370639    4.8070947798
C        1.8187629009   -1.0492129978    2.6618444988
C        1.7598458739   -1.0256666352    4.1515139173
C        0.4575630442   -1.1734106337    6.2050131344
Cl      -1.0810111113   -1.3420617291    7.0046065293
H        1.8957160476   -1.1078759385   -1.2332340927
H        2.2773404188    1.0251454895   -0.0128044070
H        1.4527052050   -3.2001229307    0.0358684918
H        3.7792003541   -0.8234457247    6.8982349603
H        2.2185527763    1.0616523909    2.4721000508
H        1.3980954134   -3.1585059935    2.5201429669
H        3.8896244062   -0.8171932864    4.4123535027
H        1.5778622051   -1.0526360963    8.0394237597
H       -0.3804259775   -1.2668434817    4.2234973208
22   

C        1.8694050940   -1.0924935575   -0.1504249587
C        2.2486326264    0.0630438302    0.5404293571
C        1.4552548522   -2.2245273333    0.5591871960
C        2.8387926362   -0.7581342063    6.3065432089
C        2.2164639975    0.0840298570    1.9398600882
C        1.4237047143   -2.2012877366    1.9587311198
C        2.8980574286   -0.7532402354    4.9084903479
C        1.6299311960   -1.0399179004    6.9522652572
C        0.5484432443   -1.3134579737    4.8079705527
C        1.8127546079   -1.0512419071    2.6610595672
C        1.7496278639   -1.0200745335    4.1461833151
C        0.4805106960   -1.3206932365    6.2060293242
Cl      -1.0228623600   -1.6787006646    7.0102455378
H        1.8933468505   -1.1096957060   -1.2363993312
H        2.5646008188    0.9455717697   -0.0084444524
H        1.1570914839   -3.1220039842    0.0247553670
H        3.7310325103   -0.5472783708    6.8893628796
H        2.5011277614    0.9860686316    2.4734728148
H        1.1013994124   -3.0826193541    2.5055665952
H        3.8385021698   -0.5460217062    4.4061712787
H        1.5785976604   -1.0456774337    8.0369970319
H       -0.3444865816   -1.5315853056    4.2305409064
22   

C        1.8714911485   -1.0859206995   -0.1512540801
C        2.3880086444    0.0067069768    0.5515147495
C        1.3147923994   -2.1618201838    0.5467472823
C        2.8069722440   -0.6236002931    6.3006281938
C        2.3490331427    0.0215750458    1.9508241655
C        1.2761435200   -2.1451566723    1.9461467808
C        2.8568930247   -0.6267729449    4.9022175546
C        1.6425353253   -1.0328664203    6.9583092757
C        0.5855626374   -1.4481378938    4.8249225950
C        1.7967097633   -1.0559966020    2.6642813309
C        1.7438329276   -1.0338390520    4.1472658351
C        0.5277175276   -1.4476860474    6.2233745059
Cl      -0.9228483698   -1.9584903420    7.0420176503
H        1.9012617732   -1.0983010650   -1.2371513856
H        2.8166252820    0.8462428287    0.0116817446
H        0.9132826381   -3.0123475448    0.0032518870
H        3.6731805824   -0.3070580287    6.8748339321
H        2.7412182334    0.8809563955    2.4861591941
H        0.8491797815   -2.9910112880    2.4765647296
H        3.7688385855   -0.3207614205    4.3983249533
H        1.5988149836   -1.0322930138    8.0433898711
H       -0.2880428624   -1.7632417901    4.2634482975
22   

C        1.9240125361   -1.0574281457   -0.1569311570
C        1.4077278543   -2.1643824973    0.5207303487
C        2.3712582761    0.0507940406    0.5661470637
C        0.6237527860   -1.7473978845    6.2200376099
C        1.3402876313   -2.1631384872    1.9190909397
C        2.3038902432    0.0506207824    1.9644164175
C        0.6905682263   -1.7505492517    4.8223177582
C        1.5760846499   -1.0456555288    6.9636236846
C        2.6567487217   -0.3549096133    4.9160466110
C        1.7917720734   -1.0585517889    2.6638525530
C        1.7058053476   -1.0507126246    4.1459949538
C        2.5968470207   -0.3472922568    6.3143280755
Cl       3.7912999578    0.5208706473    7.2390706426
H        1.9761617749   -1.0577204768   -1.2420566463
H        1.0610837159   -3.0289399860   -0.0381409730
H        2.7671075454    0.9163680424    0.0425990131
H       -0.1706350139   -2.2877304716    6.7272244363
H        0.9504711411   -3.0433296469    2.4196604269
H        2.6374225312    0.9341418661    2.4989616982
H       -0.0706784665   -2.2883819647    4.2666364390
H        1.5284434925   -1.0406490997    8.0485334653
H        3.4721151641    0.1759532735    4.4369646297
22   

C        1.9156393811   -1.0542943833   -0.1662575590
C        1.2709763154   -2.0915256520    0.5077697192
C        2.4950710826   -0.0157997301    0.5625106132
C        0.7185260578   -1.8558926900    6.2391498231
C        1.2098223391   -2.0926732371    1.9065387034
C        2.4335965861   -0.0179103680    1.9609022805
C        0.7809404749   -1.8549160517    4.8411146162
C        1.5880835294   -1.0544071422    6.9797541467
C        2.5811448475   -0.2583065351    4.9273790064
C        1.8001875817   -1.0645926496    2.6658985752
C        1.7043515320   -1.0469758786    4.1511526046
C        2.5247021058   -0.2540034699    6.3257400184
Cl       3.6247344900    0.7363789554    7.2451332955
H        1.9627765086   -1.0532272982   -1.2516170116
H        0.8175675672   -2.9025487135   -0.0549558632
H        2.9887164340    0.8006346727    0.0430812324
H       -0.0102979299   -2.4793379194    6.7494624886
H        0.7135417940   -2.9328592146    2.3769511403
H        2.8717517074    0.8285148148    2.4764725326
H        0.0704094217   -2.4803802706    4.3141088117
H        1.5429173957   -1.0524962618    8.0647838310
H        3.3463452045    0.3552140922    4.4682286441
22   

C        1.9066897598   -1.0512420769   -0.1814875708
C        1.1046496715   -1.9741638276    0.4866264861
C        2.6490890215   -0.1307510495    0.5549118233
C        0.8516739713   -1.9949098565    6.2463883526
C        1.0447041234   -1.9772421068    1.8855660477
C        2.5889505058   -0.1340584257    1.9532761481
C        0.9131400034   -1.9899804494    4.8482249835
C        1.5934334003   -1.0745800141    6.9849147190
C        2.4552891253   -0.1477294868    4.9289771549
C        1.7831880809   -1.0595884639    2.6581512216
C        1.7155819753   -1.0676806849    4.1487511403
C        2.3985610592   -0.1469638518    6.3273484858
Cl       3.3294169044    1.0075403483    7.2424803659
H        1.9528253706   -1.0493393430   -1.2668931075
H        0.5232280080   -2.6946606191   -0.0815955084
H        3.2768697570    0.5920529287    0.0415464025
H        0.2237883846   -2.7183099810    6.7590148318
H        0.3992692476   -2.7247019163    2.3263737774
H        3.1928555594    0.6098622992    2.4556234759
H        0.3093224423   -2.7342625019    4.3468612798
H        1.5479748079   -1.0756905205    8.0699381852
H        3.0998821787    0.5991728498    4.4867138064
22   

C        1.9088848846   -1.0314873512   -0.1735914241
C        0.9646782525   -1.8224483876    0.4811013554
C        2.7932664309   -0.2547523323    0.5746725442
C        0.9965243448   -2.1238561762    6.2350905731
C        0.9020282450   -1.8333067174    1.8797617453
C        2.7297221372   -0.2660524854    1.9729331744
C        1.0591569178   -2.1112358131    4.8371189776
C        1.5965024704   -1.1024111046    6.9724761405
C        2.3147947660   -0.0581837219    4.9167780678
C        1.7727584943   -1.0465709340    2.6575503920
C        1.7304121220   -1.0857127287    4.1448657394
C        2.2562111426   -0.0640174885    6.3150445949
Cl       2.9928558414    1.2234375756    7.2293834373
H        1.9577509367   -1.0234134325   -1.2588456174
H        0.2738201370   -2.4296648329   -0.0968290510
H        3.5382808229    0.3546322204    0.0710261875
H        0.4825442187   -2.9319175061    6.7480715602
H        0.1365853251   -2.4511866054    2.3334196137
H        3.4604099875    0.3305885687    2.5061861940
H        0.5938182748   -2.9380292246    4.3139983127
H        1.5498610094   -1.1085130493    8.0574282965
H        2.8100436656    0.7856846651    4.4526737102
22   

C        1.9067351102   -1.0300574294   -0.1593746104
C        0.8725331410   -1.7061655965    0.4920846211
C        2.8818104173   -0.3680676641    0.5902987741
C        1.1245232496   -2.1862740411    6.2345776494
C        0.8132419300   -1.7187954840    1.8907538739
C        2.8211032337   -0.3808915810    1.9888176093
C        1.1819078091   -2.1745217916    4.8364758645
C        1.6113025325   -1.0979188946    6.9631943040
C        2.2089629226    0.0081493463    4.8999767644
C        1.7828766061   -1.0524508686    2.6617666373
C        1.7291517812   -1.0788016672    4.1451978944
C        2.1547262837    0.0039555501    6.2984904589
Cl       2.7538733563    1.3665817512    7.2039516976
H        1.9534459574   -1.0203126114   -1.2447040761
H        0.1111707405   -2.2201842436   -0.0876331776
H        3.6915370692    0.1531310251    0.0875949233
H        0.7046346102   -3.0431306367    6.7539399068
H       -0.0107270992   -2.2374994988    2.3695900892
H        3.6046545246    0.1226278572    2.5456896948
H        0.8135477357   -3.0389474270    4.2936856543
H        1.5685423603   -1.1024571420    8.0483079747
H        2.6144580514    0.8850585923    4.4072669328
22   

C        1.9148086419   -1.0233133599   -0.1566812331
C        0.8042125000   -1.5818487786    0.4829401911
C        2.9589130449   -0.4877417904    0.6033764942
C        1.2366747458   -2.2518672230    6.2268470085
C        0.7396445688   -1.6059214805    1.8811715718
C        2.8925548794   -0.5121660421    2.0016239350
C        1.2895635568   -2.2390873059    4.8286056275
C        1.6090375899   -1.1140063517    6.9497165325
C        2.0866926715    0.0415006654    4.8814639382
C        1.7849248260   -1.0753860717    2.6565474456
C        1.7099504169   -1.0893605757    4.1386937575
C        2.0364443572    0.0366845859    6.2802077960
Cl       2.5013092999    1.4541984337    7.1800907104
H        1.9657499970   -1.0041420306   -1.2416926888
H       -0.0107515984   -1.9942089117   -0.1050613745
H        3.8233085695   -0.0536845337    0.1089999563
H        0.9102267402   -3.1460497084    6.7503916689
H       -0.1334175648   -2.0303885665    2.3675039183
H        3.7141914147   -0.1009711795    2.5803666910
H        1.0120452794   -3.1305859969    4.2741611270
H        1.5698400327   -1.1189162895    8.0349595685
H        2.4111668732    0.9424977504    4.3709248721
22   

C        1.9206679164   -1.0214526918   -0.1551119719
C        0.7461656116   -1.4430563388    0.4766871416
C        3.0222349464   -0.6281462553    0.6119894523
C        1.3713688277   -2.2834171130    6.2362281493
C        0.6758037405   -1.4740365758    1.8745322644
C        2.9496479446   -0.6597648187    2.0098400497
C        1.4162901045   -2.2798422720    4.8376390444
C        1.6161199976   -1.1020035426    6.9447879204
C        1.9521457913    0.0774617736    4.8619050347
C        1.7803512185   -1.0916433592    2.6528279085
C        1.6962753894   -1.0956750306    4.1372228300
C        1.9094634495    0.0825706865    6.2609730998
Cl       2.2213723686    1.5518319546    7.1436099062
H        1.9761658362   -0.9963813633   -1.2397778890
H       -0.1128328759   -1.7429694098   -0.1167163878
H        3.9343121503   -0.2971692007    0.1235714631
H        1.1506286833   -3.2030361321    6.7708369537
H       -0.2409670126   -1.7915261505    2.3625715293
H        3.8074409249   -0.3534309571    2.6014533955
H        1.2378744097   -3.1988165256    4.2868629234
H        1.5831654397   -1.0994108205    8.0302453811
H        2.1799586625    0.9976016144    4.3329702375
22   

C        1.9192511858   -1.0249587691   -0.1524259613
C        0.6987387601   -1.2834552144    0.4806391759
C        3.0676551485   -0.7966649335    0.6134058364
C        1.5297329254   -2.3117807376    6.2465353599
C        0.6289114095   -1.3160455670    1.8785134933
C        2.9950027710   -0.8298678485    2.0112569138
C        1.5732877159   -2.3113380562    4.8478669039
C        1.6226678284   -1.1039191539    6.9472271060
C        1.8045103081    0.0953270925    4.8563785282
C        1.7783251658   -1.0974185842    2.6530004908
C        1.7017855179   -1.1057792903    4.1420287539
C        1.7621321359    0.1042942365    6.2554911103
Cl       1.8846710377    1.6069859070    7.1283620441
H        1.9745816937   -0.9986011123   -1.2370697546
H       -0.1953879293   -1.4561076121   -0.1115532989
H        4.0156954387   -0.5920977800    0.1241755350
H        1.4267041197   -3.2484960071    6.7870782499
H       -0.3197895618   -1.5094578972    2.3706306072
H        3.8862586159   -0.6496429906    2.6053609016
H        1.5090711770   -3.2471150136    4.3001057158
H        1.5900304953   -1.0984911634    8.0326835977
H        1.9153615374    1.0314093113    4.3178797266
22   

C        1.9066783629   -1.0356908653   -0.1520775441
C        0.6687636746   -1.1029635728    0.4965345606
C        3.0863557990   -0.9889247120    0.5989535807
C        1.7064707682   -2.3235023792    6.2452077097
C        0.6122555796   -1.1235409782    1.8952476467
C        3.0269456001   -1.0096380190    1.9976995258
C        1.7616368403   -2.3127821488    4.8469766542
C        1.6219413037   -1.1165076110    6.9487184255
C        1.6479341672    0.1025515432    4.8614924609
C        1.7912002247   -1.0771869095    2.6538733323
C        1.7327031871   -1.0985959668    4.1458371986
C        1.5923064130    0.1013520349    6.2602018783
Cl       1.4870808778    1.6033678453    7.1364863031
H        1.9518030116   -1.0193157898   -1.2373897957
H       -0.2485465065   -1.1387931460   -0.0841815458
H        4.0485167552   -0.9360984077    0.0975348412
H        1.7292482432   -3.2671150776    6.7830871754
H       -0.3479404924   -1.1751178170    2.4002994293
H        3.9421799976   -0.9727442086    2.5814124924
H        1.8273113135   -3.2465225947    4.2958792903
H        1.5788646472   -1.1189558333    8.0338219046
H        1.6251473806    1.0456661021    4.3243209484
22   

C        1.8952362506   -1.0344394861   -0.1523764353
C        0.6718815876   -0.9045919324    0.5139934921
C        3.0785129240   -1.1722082732    0.5815546043
C        1.8839063993   -2.3111928081    6.2347645690
C        0.6335979653   -0.9101546355    1.9134280494
C        3.0377481447   -1.1774112841    1.9811247456
C        1.9557371563   -2.2794311863    4.8376350007
C        1.6203274778   -1.1350746325    6.9461787711
C        1.4988264623    0.0953955409    4.8689441348
C        1.8176335017   -1.0384836922    2.6556548496
C        1.7730643706   -1.0726723899    4.1455982304
C        1.4249554911    0.0724474656    6.2666176031
Cl       1.0895663061    1.5344842043    7.1525985764
H        1.9259919053   -1.0306600204   -1.2383084388
H       -0.2486051287   -0.8017688023   -0.0535577574
H        4.0289886302   -1.2761718663    0.0660532095
H        2.0296013377   -3.2478018491    6.7655875723
H       -0.3165072418   -0.8162922620    2.4313508862
H        3.9559510195   -1.2869110210    2.5508226821
H        2.1520434641   -3.1911145898    4.2807018411
H        1.5627639044   -1.1542739782    8.0304435159
H        1.3444046014    1.0303104362    4.3392568759
22   

C        1.8883810523   -1.0377033491   -0.1529704704
C        0.6997883119   -0.7362219930    0.5200115706
C        3.0439131448   -1.3411642259    0.5746708743
C        2.0399557973   -2.2666764325    6.2409712202
C        0.6688184309   -0.7352966724    1.9196055650
C        3.0108229666   -1.3397595032    1.9744122874
C        2.1151954163   -2.2309898005    4.8441296267
C        1.6242018364   -1.1318973000    6.9462054291
C        1.3576072947    0.0652613560    4.8632909351
C        1.8270618177   -1.0272932529    2.6580241702
C        1.7857186150   -1.0595287318    4.1437948490
C        1.2792760315    0.0377349056    6.2605672372
Cl       0.7537029685    1.4476970553    7.1385371444
H        1.9131499872   -1.0391273010   -1.2390620957
H       -0.2004612427   -0.5062161242   -0.0426951164
H        3.9671737570   -1.5786740870    0.0539760460
H        2.2998651166   -3.1754832292    6.7764610393
H       -0.2585077313   -0.5118601909    2.4390071427
H        3.9096876636   -1.5763194951    2.5361465783
H        2.4256350702   -3.1152311825    4.2950881219
H        1.5632010182   -1.1546468235    8.0302135225
H        1.0887055060    0.9730087217    4.3322495234
22   

C        1.8896566037   -1.0423465458   -0.1568806172
C        0.7456801449   -0.6022952876    0.5155982405
C        2.9934572210   -1.4960678082    0.5714608636
C        2.1733455607   -2.2324622060    6.2549065088
C        0.7071759389   -0.6144591702    1.9149359956
C        2.9530998719   -1.5080102890    1.9708818136
C        2.2346862575   -2.2058628176    4.8571913082
C        1.6387100231   -1.1435431449    6.9508948298
C        1.2273577581   -0.0092867586    4.8568203618
C        1.8123664720   -1.0628142956    2.6584295290
C        1.7677294487   -1.0902956136    4.1416390383
C        1.1625953990   -0.0282481087    6.2548447911
Cl       0.4951043736    1.3279369503    7.1211249683
H        1.9201987003   -1.0329331399   -1.2427863797
H       -0.1153092481   -0.2537801301   -0.0476386336
H        3.8837852986   -1.8378337343    0.0514078229
H        2.5370645290   -3.0998278257    6.7986138311
H       -0.1919261365   -0.2829361942    2.4256455894
H        3.8195379866   -1.8545281749    2.5259692353
H        2.6378699816   -3.0610563801    4.3231128579
H        1.5887166930   -1.1594991434    8.0355884191
H        0.8631154491    0.8642382483    4.3257494167
22   

C        1.8911952348   -1.0397679641   -0.1596793625
C        0.8004838562   -0.4813553460    0.5107394827
C        2.9272380775   -1.6258711287    0.5711031748
C        2.2884876392   -2.1603314924    6.2804747897
C        0.7459671063   -0.5101844849    1.9093087604
C        2.8710958552   -1.6545896647    1.9696338848
C        2.3269167383   -2.1565655716    4.8817038118
C        1.6532053216   -1.1209337724    6.9648802472
C        1.0986441131   -0.0794999153    4.8563781949
C        1.7773603220   -1.1009347000    2.6615884441
C        1.7289932977   -1.1180829508    4.1453811169
C        1.0564576254   -0.0760653717    6.2553311725
Cl       0.2719009107    1.2262048881    7.1063033576
H        1.9342234185   -1.0167563988   -1.2449614685
H       -0.0083676180   -0.0265100384   -0.0539702588
H        3.7804816098   -2.0549774358    0.0536096462
H        2.7496673833   -2.9731085447    6.8345093853
H       -0.1216747800   -0.0839282994    2.4023372782
H        3.7005382070   -2.0960003853    2.5122718376
H        2.8109251220   -2.9834468075    4.3721745709
H        1.6213119615   -1.1193335583    8.0503764426
H        0.6480383341    0.7548948910    4.3302405284
22   

C        1.8980568541   -1.0331260514   -0.1731791157
C        0.8839392669   -0.3551787500    0.5031450095
C        2.8495443952   -1.7490160297    0.5530050239
C        2.4093044256   -2.0737032637    6.2947489218
C        0.8195491796   -0.3959394278    1.9010808049
C        2.7840381305   -1.7892738071    1.9507156119
C        2.4309130914   -2.0844159633    4.8956159343
C        1.6731256786   -1.1039883672    6.9762150828
C        0.9868961634   -0.1583847227    4.8624000465
C        1.7593974203   -1.1220681199    2.6572113154
C        1.7116182910   -1.1353078037    4.1449256150
C        0.9605300109   -0.1411326217    6.2616277953
Cl       0.0522318728    1.0823538441    7.1068196947
H        1.9483963183   -1.0008354528   -1.2579139254
H        0.1398804978    0.2038821025   -0.0571119255
H        3.6478598724   -2.2703382041    0.0325142302
H        2.9640308205   -2.8234052959    6.8519826679
H       -0.0010186146    0.1319915592    2.3722057970
H        3.5657122435   -2.3344421283    2.4659461993
H        3.0013174949   -2.8699858117    4.4143482786
H        1.6540096205   -1.0917454075    8.0619489086
H        0.4427161157    0.6293918521    4.3567416726
22   

C        1.8784171929   -1.0458569674   -0.1862066303
C        1.0060271883   -0.2077082541    0.5047600907
C        2.7142781456   -1.9009918016    0.5282931386
C        2.5507678339   -1.9574362189    6.3014593329
C        0.9693463852   -0.2243208145    1.9043124404
C        2.6769274384   -1.9169263811    1.9274394260
C        2.5905390630   -1.9439128906    4.9026564373
C        1.6757431085   -1.1164500816    6.9865284077
C        0.8840314127   -0.2522162883    4.8756588393
C        1.8012636599   -1.0769674580    2.6562394865
C        1.7601218999   -1.0926428854    4.1478339143
C        0.8386673930   -0.2601985336    6.2744908956
Cl      -0.2587672253    0.7949710728    7.1225291494
H        1.9065146399   -1.0326063439   -1.2721484278
H        0.3512007916    0.4618654199   -0.0456730032
H        3.3973493970   -2.5576184886   -0.0030176290
H        3.2037849926   -2.6253843495    6.8561989430
H        0.2653820416    0.4556820525    2.3649123686
H        3.3550120799   -2.6070209057    2.4112649959
H        3.2944073270   -2.6238054796    4.4415912717
H        1.6420115789   -1.1241000561    8.0719522403
H        0.2064463648    0.4373913849    4.3918091118
