22   

C        1.8654118834   -1.0660910493   -0.1744317488
C        1.1522258228   -0.0843884829    0.5133809862
C        2.5628486741   -2.0384074227    0.5420546884
C        2.6657748588   -1.8148245293    6.3045493402
C        1.1394482465   -0.0730449816    1.9132880421
C        2.5495651781   -2.0259441959    1.9417600789
C        2.7295918291   -1.7829406733    4.9070282501
C        1.6636530604   -1.1135389248    6.9758556522
C        0.7918028977   -0.3553034342    4.8549479588
C        1.8458659547   -1.0347861920    2.6605102600
C        1.8023724922   -1.0437055815    4.1483916348
C        0.7214009623   -0.3824930646    6.2524943036
Cl      -0.5422131783    0.4823556450    7.0841132147
H        1.8746696546   -1.0752738966   -1.2607357217
H        0.6073066083    0.6756746998   -0.0392738471
H        3.1114708312   -2.8117662312    0.0120311254
H        3.3994019013   -2.3839483850    6.8686179511
H        0.5858665827    0.7243767321    2.3946063535
H        3.0826847525   -2.8219939411    2.4475007663
H        3.5384781579   -2.3277984017    4.4348708327
H        1.6101809299   -1.1359682099    8.0602775882
H        0.0182879707    0.2009898630    4.3405292728
22   

C        1.8817681097   -1.0657671617   -0.1571827915
C        1.2826785155   -0.0051001144    0.5261876924
C        2.4482585542   -2.1209138914    0.5616137065
C        2.7324610919   -1.6791340579    6.3070250987
C        1.2513589074    0.0003645067    1.9257567691
C        2.4167892772   -2.1137833224    1.9611910739
C        2.7884021354   -1.6678720082    4.9088814893
C        1.6576244416   -1.0792172226    6.9682455894
C        0.6999730741   -0.4606659461    4.8379385495
C        1.8215456537   -1.0507702391    2.6664203553
C        1.7750222552   -1.0547873246    4.1503950299
C        0.6368181370   -0.4682828761    6.2360804923
Cl      -0.7093955565    0.2722167122    7.0576372110
H        1.9054422117   -1.0707576922   -1.2432910139
H        0.8428563931    0.8184868101   -0.0290441942
H        2.9088766542   -2.9510135997    0.0336693804
H        3.5263891866   -2.1513822994    6.8787830476
H        0.7943875177    0.8456731655    2.4299465599
H        2.8442962014   -2.9573725340    2.4930417650
H        3.6417585356   -2.1249629581    4.4185090861
H        1.6096798510   -1.0859558998    8.0531312077
H       -0.1165396010   -0.0001462249    4.2926726046
22   

C        1.8897772839   -1.0596377495   -0.1503378106
C        1.4065524075    0.0545699347    0.5422190456
C        2.3239264879   -2.1843575809    0.5576554538
C        2.7969483038   -1.5620503393    6.2942062425
C        1.3560480750    0.0424516740    1.9411845361
C        2.2731498992   -2.1946630911    1.9567401130
C        2.8332146591   -1.5736498270    4.8954165028
C        1.6720130288   -1.0636607906    6.9590703527
C        0.6272940878   -0.5893305949    4.8319909172
C        1.7841173881   -1.0842979898    2.6639067469
C        1.7452959146   -1.0927938592    4.1473274417
C        0.5833021998   -0.5743149561    6.2308787428
Cl      -0.8177467370    0.0481492291    7.0584144768
H        1.9290322532   -1.0508678245   -1.2359682135
H        1.0731295164    0.9317486996   -0.0049423561
H        2.6992031498   -3.0516135606    0.0219509586
H        3.6434969061   -1.9361678454    6.8630875146
H        0.9914724126    0.9189979947    2.4683157121
H        2.6051090744   -3.0769540138    2.4955156117
H        3.7160037562   -1.9487870405    4.3863908820
H        1.6391571521   -1.0522588492    8.0444765814
H       -0.2259895330   -0.2151820550    4.2755080539
22   

C        1.8856131753   -1.0595739486   -0.1460382720
C        1.5406110985    0.1011585073    0.5541209884
C        2.1699502335   -2.2371708102    0.5534019898
C        2.8303641621   -1.4267513231    6.2874853535
C        1.4770951358    0.0822081567    1.9524893762
C        2.1059286954   -2.2540081269    1.9519676095
C        2.8579240961   -1.4524009743    4.8886683277
C        1.6604399269   -1.0480241105    6.9551466315
C        0.5543634404   -0.7193820931    4.8311527726
C        1.7495135613   -1.0986058406    2.6620860418
C        1.7150827967   -1.1100584424    4.1483505031
C        0.5185919924   -0.6907366401    6.2301415334
Cl      -0.9352260058   -0.2112256115    7.0617294492
H        1.9355970226   -1.0456026489   -1.2311726208
H        1.3253138619    1.0185143057    0.0136623840
H        2.4411691568   -3.1388338591    0.0117474212
H        3.7173669339   -1.6963675466    6.8538457477
H        1.2199238368    0.9881137999    2.4936301091
H        2.3277870709   -3.1698860734    2.4917918142
H        3.7693713895   -1.7340191020    4.3693834389
H        1.6340791021   -1.0255631437    8.0405557931
H       -0.3318906791   -0.4409251579    4.2696068947
22   

C        1.8868642601   -1.0679266570   -0.1450534392
C        1.7114027951    0.1298707887    0.5563529472
C        2.0050363334   -2.2746286651    0.5532673149
C        2.8667302418   -1.2676092714    6.2912661598
C        1.6518194828    0.1191497109    1.9550143484
C        1.9450421360   -2.2828115540    1.9521301500
C        2.9005042663   -1.2904607791    4.8925173744
C        1.6558375296   -1.0417381780    6.9557740464
C        0.5214062151   -0.8600981310    4.8288796032
C        1.7601612421   -1.0886231026    2.6611787249
C        1.7249479228   -1.0963011851    4.1517417739
C        0.4787517374   -0.8353059688    6.2278145814
Cl      -1.0266969068   -0.5468259799    7.0557075739
H        1.9336496818   -1.0606705748   -1.2303954924
H        1.6236623247    1.0685350457    0.0167290860
H        2.1443426267   -3.2053207457    0.0107179757
H        3.7794911042   -1.4220111758    6.8598276629
H        1.5225070428    1.0494898872    2.5004483782
H        2.0393269605   -3.2191942520    2.4942941301
H        3.8393017149   -1.4573396302    4.3722403351
H        1.6241534956   -1.0222415091    8.0410977995
H       -0.3898111536   -0.6969846335    4.2618175088
22   

C        1.8770476253   -1.0790290917   -0.1465643529
C        1.9016238154    0.1358288207    0.5471119630
C        1.8125644424   -2.2849798668    0.5601396430
C        2.8893632199   -1.0907735711    6.3028693069
C        1.8618624204    0.1430628137    1.9465281020
C        1.7729044392   -2.2749138811    1.9597074089
C        2.9384748042   -1.0969406571    4.9043882578
C        1.6527462461   -1.0437506007    6.9567087108
C        0.5233633349   -1.0093516529    4.8197192352
C        1.7974820640   -1.0625048667    2.6608618016
C        1.7546367197   -1.0562277842    4.1535174278
C        0.4647954397   -1.0028531976    6.2182965172
Cl      -1.0740684870   -0.9443516484    7.0328368270
H        1.9075191873   -1.0859042146   -1.2324888086
H        1.9510866189    1.0734274909    0.0008188273
H        1.7928031458   -3.2292925259    0.0236256725
H        3.8095818420   -1.1224349299    6.8794395481
H        1.8802449061    1.0852815374    2.4865289554
H        1.7222295769   -3.2105621799    2.5090049960
H        3.8954001562   -1.1333551403    4.3916877976
H        1.6087908262   -1.0387553570    8.0417682487
H       -0.3963963201   -0.9776985501    4.2438936621
22   

C        1.8730433249   -1.0909192934   -0.1472292980
C        2.0888668531    0.1088198772    0.5392720855
C        1.6242064555   -2.2680846650    0.5667793493
C        2.8687711248   -0.9165671958    6.3128432155
C        2.0583118205    0.1291716269    1.9387864214
C        1.5942321978   -2.2449001755    1.9663988015
C        2.9311753123   -0.9102793640    4.9149019638
C        1.6320429490   -1.0465376690    6.9548328311
C        0.5293713277   -1.1658396205    4.8070949124
C        1.8187629009   -1.0492129978    2.6618444988
C        1.7598458739   -1.0256666352    4.1515139173
C        0.4575635372   -1.1734142484    6.2050132630
Cl      -1.0810103380   -1.3420676377    7.0046067117
H        1.8956957656   -1.1078716699   -1.2332347203
H        2.2773360609    1.0251465524   -0.0128044194
H        1.4526758608   -3.2001169426    0.0358675288
H        3.7792005542   -0.8234464700    6.8982349106
H        2.2185588842    1.0616512242    2.4721002523
H        1.3980759219   -3.1585020966    2.5201421499
H        3.8896242971   -0.8171922297    4.4123534944
H        1.5778627603   -1.0526396291    8.0394238335
H       -0.3804256512   -1.2668467993    4.2234975666
22   

C        1.8693876531   -1.0924869758   -0.1504257270
C        2.2486255675    0.0630466159    0.5404291527
C        1.4552319688   -2.2245189144    0.5591860918
C        2.8387931110   -0.7581352696    6.3065432291
C        2.2164639975    0.0840298570    1.9398600882
C        1.4236884538   -2.2012818152    1.9587302010
C        2.8980574286   -0.7532402354    4.9084903479
C        1.6299321867   -1.0399205923    6.9522654822
C        0.5484439489   -1.3134605014    4.8079709215
C        1.8127546079   -1.0512419071    2.6610595672
C        1.7496278639   -1.0200745335    4.1461833151
C        0.4805118304   -1.3206967888    6.2060297037
Cl      -1.0228605773   -1.6787064911    7.0102461112
H        1.8933245695   -1.1096872299   -1.2364002343
H        2.5645961193    0.9455738903   -0.0084443651
H        1.1570590739   -3.1219921654    0.0247538678
H        3.7310329885   -0.5472790273    6.8893627479
H        2.5011345283    0.9860663193    2.4734731054
H        1.1013778039   -3.0826118235    2.5055651089
H        3.8385019127   -0.5460206737    4.4061712306
H        1.5785989605   -1.0456808665    8.0369972706
H       -0.3444859637   -1.5315884845    4.2305416587
22   

C        1.8714799106   -1.0859145501   -0.1512547240
C        2.3880041045    0.0067095863    0.5515145996
C        1.3147776500   -2.1618123776    0.5467463081
C        2.8069728729   -0.6236011893    6.3006282175
C        2.3490331427    0.0215750458    1.9508241655
C        1.2761330161   -2.1451512513    1.9461459516
C        2.8568930247   -0.6267729449    4.9022175546
C        1.6425365858   -1.0328685618    6.9583095671
C        0.5855634907   -1.4481398714    4.8249230726
C        1.7967097633   -1.0559966020    2.6642813309
C        1.7438329276   -1.0338390520    4.1472658351
C        0.5277189269   -1.4476888109    6.2233750069
Cl      -0.9228462190   -1.9584948121    7.0420184272
H        1.9012474352   -1.0982931425   -1.2371521342
H        2.8166222943    0.8462448295    0.0116818788
H        0.9132617497   -3.0123365969    0.0032505322
H        3.6731812479   -0.3070586752    6.8748337637
H        2.7412226339    0.8809542704    2.4861593663
H        0.8491657958   -2.9910045415    2.4765631837
H        3.7688382912   -0.3207606056    4.3983249275
H        1.5988166617   -1.0322957383    8.0433901811
H       -0.2880422059   -1.7632441999    4.2634493587
22   

C        1.9240177347   -1.0574307928   -0.1569310793
C        1.4077299425   -2.1643836385    0.5207304568
C        2.3712651533    0.0507907303    0.5661470687
C        0.6237520847   -1.7473972564    6.2200375705
C        1.3402876313   -2.1631384872    1.9190909397
C        2.3038951903    0.0506185333    1.9644163304
C        0.6905682263   -1.7505492517    4.8223177582
C        1.5760830443   -1.0456538729    6.9636237784
C        2.6567473890   -0.3549079202    4.9160468709
C        1.7917720734   -1.0585517889    2.6638525530
C        1.7058053476   -1.0507126246    4.1459949538
C        2.5968450386   -0.3472899811    6.3143283042
Cl       3.7912968004    0.5208743972    7.2390710142
H        1.9761683840   -1.0577239061   -1.2420564984
H        1.0610850793   -3.0289409124   -0.0381407455
H        2.7671172779    0.9163634259    0.0425990192
H       -0.1706356010   -2.2877301380    6.7272242602
H        0.9504691323   -3.0433288242    2.4196602859
H        2.6374291676    0.9341392246    2.4989611617
H       -0.0706780225   -2.2883826370    4.2666364994
H        1.5284414049   -1.0406470297    8.0485335356
H        3.4721137132    0.1759555743    4.4369654084
22   

C        1.9156404552   -1.0542951227   -0.1662575742
C        1.2709767167   -2.0915259452    0.5077697313
C        2.4950725772   -0.0158007032    0.5625105705
C        0.7185254354   -1.8558920601    6.2391498009
C        1.2098223391   -2.0926732371    1.9065387034
C        2.4335977002   -0.0179110477    1.9609022155
C        0.7809404749   -1.8549160517    4.8411146162
C        1.5880820426   -1.0544056027    6.9797541415
C        2.5811435487   -0.2583051004    4.9273790644
C        1.8001875817   -1.0645926496    2.6658985752
C        1.7043515320   -1.0469758786    4.1511526046
C        2.5247002196   -0.2540014574    6.3257400453
Cl       3.6247314001    0.7363823056    7.2451333248
H        1.9627778457   -1.0532282396   -1.2516170162
H        0.8175677485   -2.9025488964   -0.0549558304
H        2.9887185803    0.8006333035    0.0430811877
H       -0.0102984002   -2.4793374842    6.7494624439
H        0.7135413155   -2.9328589639    2.3769510664
H        2.8717533295    0.8285139904    2.4764722434
H        0.0704099472   -2.4803809202    4.3141088899
H        1.5429154747   -1.0524942938    8.0647838071
H        3.3463435266    0.3552161462    4.4682289288
22   

C        1.9066897805   -1.0512421175   -0.1814875783
C        1.1046496830   -1.9741638510    0.4866264867
C        2.6490890289   -0.1307510743    0.5549118127
C        0.8516739497   -1.9949098004    6.2463883583
C        1.0447041234   -1.9772421068    1.8855660477
C        2.5889505008   -0.1340584254    1.9532761392
C        0.9131400034   -1.9899804494    4.8482249835
C        1.5934333468   -1.0745799115    6.9849147049
C        2.4552891042   -0.1477294525    4.9289771357
C        1.7831880809   -1.0595884639    2.6581512216
C        1.7155819753   -1.0676806849    4.1487511403
C        2.3985610015   -0.1469637608    6.3273484582
Cl       3.3294167769    1.0075405170    7.2424803079
H        1.9528254044   -1.0493394120   -1.2668931168
H        0.5232280203   -2.6946606499   -0.0815954985
H        3.2768697676    0.5920528971    0.0415463903
H        0.2237883712   -2.7183099074    6.7590148687
H        0.3992692422   -2.7247019088    2.3263737824
H        3.1928555419    0.6098623215    2.4556234534
H        0.3093224582   -2.7342625236    4.3468612922
H        1.5479747297   -1.0756903638    8.0699381713
H        3.0998821686    0.5991728786    4.4867137877
22   

C        1.9088838203   -1.0314862795   -0.1735915242
C        0.9646778022   -1.8224479640    0.4811013376
C        2.7932650916   -0.2547509049    0.5746723795
C        0.9965249051   -2.1238565965    6.2350905976
C        0.9020282450   -1.8333067174    1.8797617453
C        2.7297212278   -0.2660514536    1.9729330211
C        1.0591569178   -2.1112358131    4.8371189776
C        1.5965039304   -1.1024121335    6.9724762581
C        2.3147962668   -0.0581846767    4.9167782478
C        1.7727584943   -1.0465709340    2.6575503920
C        1.7304121220   -1.0857127287    4.1448657394
C        2.2562131434   -0.0640188286    6.3150447907
Cl       2.9928591096    1.2234354351    7.2293837440
H        1.9577495658   -1.0234120605   -1.2588457285
H        0.2738197999   -2.4296645870   -0.0968290202
H        3.5382789309    0.3546342802    0.0710259695
H        0.4825445030   -2.9319177823    6.7480715349
H        0.1365856918   -2.4511870733    2.3334195776
H        3.4604088618    0.3305900687    2.5061857880
H        0.5938176042   -2.9380288539    4.3139983390
H        1.5498628312   -1.1085143465    8.0574284288
H        2.8100458110    0.7856834611    4.4526741589
22   

C        1.9067317592   -1.0300529816   -0.1593748857
C        0.8725317242   -1.7061638293    0.4920845780
C        2.8818061400   -0.3680617081    0.5902983224
C        1.1245240079   -2.1862746002    6.2345776764
C        0.8132419300   -1.7187954840    1.8907538739
C        2.8211002564   -0.3808872339    1.9888172008
C        1.1819078091   -2.1745217916    4.8364758645
C        1.6113044071   -1.0979201250    6.9631945353
C        2.2089647852    0.0081483589    4.8999771389
C        1.7828766061   -1.0524508686    2.6617666373
C        1.7291517812   -1.0788016672    4.1451978944
C        2.1547288039    0.0039540637    6.2984908552
Cl       2.7538774518    1.3665794232    7.2039523238
H        1.9534416450   -1.0203069690   -1.2447043834
H        0.1111696514   -2.2201831363   -0.0876330675
H        3.6915310858    0.1531394591    0.0875942895
H        0.7046351144   -3.0431311460    6.7539398078
H       -0.0107259743   -2.2375012747    2.3695900776
H        3.6046509139    0.1226337393    2.5456887509
H        0.8135470093   -3.0389471178    4.2936856726
H        1.5685447038   -1.1024587483    8.0483082231
H        2.6144605079    0.8850575971    4.4072678331
22   

C        1.9148026818   -1.0233026300   -0.1566815769
C        0.8042100020   -1.5818444997    0.4829401467
C        2.9589053812   -0.4877275405    0.6033759368
C        1.2366756531   -2.2518678329    6.2268470362
C        0.7396445688   -1.6059214805    1.8811715718
C        2.8925495013   -0.5121557925    2.0016234116
C        1.2895635568   -2.2390873059    4.8286056275
C        1.6090398447   -1.1140076199    6.9497168398
C        2.0866948326    0.0414997549    4.8814644415
C        1.7849248260   -1.0753860717    2.6565474456
C        1.7099504169   -1.0893605757    4.1386937575
C        2.0364473632    0.0366831271    6.2802083252
Cl       2.5013142268    1.4541961545    7.1800915477
H        1.9657423514   -1.0041284098   -1.2416930600
H       -0.0107534444   -1.9942062132   -0.1050612160
H        3.8232978210   -0.0536643542    0.1089992067
H        0.9102273485   -3.1460503254    6.7503915024
H       -0.1334154785   -2.0303927833    2.3675039665
H        3.7141847101   -0.1009574923    2.5803655869
H        1.0120444303   -3.1305856925    4.2741610733
H        1.5698428778   -1.1189179552    8.0349598929
H        2.4111695871    0.9424969679    4.3709259844
22   

C        1.9206612490   -1.0214354031   -0.1551121789
C        0.7461628023   -1.4430493453    0.4766871494
C        3.0222263843   -0.6281235417    0.6119891007
C        1.3713699222   -2.2834175754    6.2362281869
C        0.6758037405   -1.4740365758    1.8745322644
C        2.9496419039   -0.6597486489    2.0098396723
C        1.4162901045   -2.2798422720    4.8376390444
C        1.6161227247   -1.1020045124    6.9447881967
C        1.9521483728    0.0774610660    4.8619054626
C        1.7803512185   -1.0916433592    2.6528279085
C        1.6962753894   -1.0956750306    4.1372228300
C        1.9094670647    0.0825695649    6.2609735528
Cl       2.2213782941    1.5518302056    7.1436105887
H        1.9761572680   -0.9963592986   -1.2397780837
H       -0.1128349922   -1.7429647777   -0.1167161908
H        3.9343001249   -0.2971370454    0.1235710387
H        1.1506293830   -3.2030365920    6.7708368330
H       -0.2409646588   -1.7915328634    2.3625715748
H        3.8074332313   -0.3534094573    2.6014526513
H        1.2378733677   -3.1988162824    4.2868628620
H        1.5831688886   -1.0994120937    8.0302456812
H        2.1799619092    0.9976009741    4.3329710788
22   

C        1.9192477312   -1.0249430489   -0.1524258870
C        0.6987373038   -1.2834488198    0.4806392501
C        3.0676507031   -0.7966443543    0.6134059073
C        1.5297339209   -2.3117809113    6.2465353924
C        0.6289114095   -1.3160455670    1.8785134933
C        2.9949996159   -0.8298532466    2.0112569040
C        1.5732877159   -2.3113380562    4.8478669039
C        1.6226703619   -1.1039195243    6.9472272587
C        1.8045127486    0.0953268108    4.8563787357
C        1.7783251658   -1.0974185842    2.6530004908
C        1.7017855179   -1.1057792903    4.1420287539
C        1.7621355356    0.1042938017    6.2554913429
Cl       1.8846766114    1.6069852283    7.1283623920
H        1.9745772521   -0.9985810120   -1.2370696228
H       -0.1953890308   -1.4561032954   -0.1115531547
H        4.0156891804   -0.5920686203    0.1241756805
H        1.4267047294   -3.2484961807    6.7870782104
H       -0.3197883410   -1.5094639593    2.3706305746
H        3.8862545277   -0.6496235575    2.6053608286
H        1.5090702126   -3.2471149248    4.3001056809
H        1.5900336828   -1.0984916570    8.0326837718
H        1.9153646969    1.0314090235    4.3178800680
22   

C        1.9066783331   -1.0356909333   -0.1520775564
C        0.6687636541   -1.1029636060    0.4965345623
C        3.0863557765   -0.9889247724    0.5989535558
C        1.7064707285   -2.3235023839    6.2452077060
C        0.6122555796   -1.1235409782    1.8952476467
C        3.0269455942   -1.0096380423    1.9976995073
C        1.7616368403   -2.3127821488    4.8469766542
C        1.6219412412   -1.1165076184    6.9487184224
C        1.6479341189    0.1025515382    4.8614924588
C        1.7912002247   -1.0771869095    2.6538733323
C        1.7327031871   -1.0985959668    4.1458371986
C        1.5923063387    0.1013520281    6.2602018747
Cl       1.4870807390    1.6033678411    7.1364862863
H        1.9518029687   -1.0193158969   -1.2373898104
H       -0.2485465369   -1.1387931869   -0.0841815262
H        4.0485167264   -0.9360984985    0.0975348031
H        1.7292481845   -3.2671150853    6.7830871655
H       -0.3479404889   -1.1751177996    2.4002994379
H        3.9421800012   -0.9727442343    2.5814124582
H        1.8273113289   -3.2465225941    4.2958792911
H        1.5788645675   -1.1189558413    8.0338219008
H        1.6251473079    1.0456660950    4.3243209436
22   

C        1.8952342256   -1.0344557099   -0.1523766741
C        0.6718807068   -0.9045985352    0.5139934403
C        3.0785103557   -1.1722295031    0.5815542640
C        1.8839051816   -2.3111930474    6.2347645008
C        0.6335979653   -0.9101546355    1.9134280494
C        3.0377463225   -1.1774263427    1.9811244489
C        1.9557371563   -2.2794311863    4.8376350007
C        1.6203244945   -1.1350752220    6.9461786170
C        1.4988236034    0.0953949610    4.8689439992
C        1.8176335017   -1.0384836922    2.6556548496
C        1.7730643706   -1.0726723899    4.1455982304
C        1.4249515169    0.0724466798    6.2666174002
Cl       1.0895597209    1.5344829188    7.1525982126
H        1.9259892977   -1.0306807434   -1.2383087094
H       -0.2486058498   -0.8017732642   -0.0535576859
H        4.0289850430   -1.2762019118    0.0660527635
H        2.0296005063   -3.2478020188    6.7655875184
H       -0.3165065807   -0.8162860365    2.4313509697
H        3.9559487025   -1.2869310352    2.5508222324
H        2.1520445430   -3.1911144193    4.2807019423
H        1.5627601373   -1.1542747219    8.0304433164
H        1.3444007724    1.0303096803    4.3392567180
22   

C        1.8883759646   -1.0377214192   -0.1529708044
C        0.6997861532   -0.7362293240    0.5200115233
C        3.0439066398   -1.3411879028    0.5746703661
C        2.0399545134   -2.2666768965    6.2409711426
C        0.6688184309   -0.7352966724    1.9196055650
C        3.0108183674   -1.3397763289    1.9744118091
C        2.1151954163   -2.2309898005    4.8441296267
C        1.6241987226   -1.1318984089    6.9462052888
C        1.3576042859    0.0652603061    4.8632908397
C        1.8270618177   -1.0272932529    2.6580241702
C        1.7857186150   -1.0595287318    4.1437948490
C        1.2792718982    0.0377334580    6.2605670653
Cl       0.7536962151    1.4476947210    7.1385368293
H        1.9131434341   -1.0391504080   -1.2390624563
H       -0.2004629115   -0.5062210357   -0.0426949571
H        3.9671646387   -1.5787076197    0.0539753972
H        2.2998641928   -3.1754835955    6.7764609525
H       -0.2585060142   -0.5118532252    2.4390072031
H        3.9096818173   -1.5763418744    2.5361457486
H        2.4256361241   -3.1152309566    4.2950883641
H        1.5631970682   -1.1546482458    8.0302133274
H        1.0887015095    0.9730074050    4.3322494809
22   

C        1.8896516008   -1.0423579803   -0.1568810857
C        0.7456780362   -0.6022998923    0.5155981440
C        2.9934508281   -1.4960828983    0.5714601455
C        2.1733444750   -2.2324627235    6.2549064591
C        0.7071759389   -0.6144591702    1.9149359956
C        2.9530953962   -1.5080210973    1.9708811853
C        2.2346862575   -2.2058628176    4.8571913082
C        1.6387074201   -1.1435444091    6.9508947579
C        1.2273553329   -0.0092879118    4.8568203464
C        1.8123664720   -1.0628142956    2.6584295290
C        1.7677294487   -1.0902956136    4.1416390383
C        1.1625920153   -0.0282497320    6.2548447182
Cl       0.4950988744    1.3279343406    7.1211248141
H        1.9201922515   -1.0329477230   -1.2427869163
H       -0.1153108633   -0.2537831628   -0.0476385091
H        3.8837763426   -1.8378550872    0.0514068346
H        2.5370637134   -3.0998282383    6.7986137684
H       -0.1919244789   -0.2829317680    2.4256456132
H        3.8195324198   -1.8545425738    2.5259680445
H        2.6378708142   -3.0610562006    4.3231132290
H        1.5887133534   -1.1595007845    8.0355883083
H        0.8631122724    0.8642368559    4.3257495352
22   

C        1.8911922751   -1.0397729455   -0.1596797190
C        0.8004826137   -0.4813573577    0.5107393942
C        2.9272343278   -1.6258776757    0.5711026343
C        2.2884869173   -2.1603319632    6.2804747730
C        0.7459671063   -0.5101844849    1.9093087604
C        2.8710932644   -1.6545943650    1.9696334278
C        2.3269167383   -2.1565655716    4.8817038118
C        1.6532034903   -1.1209349656    6.9648802660
C        1.0986422538   -0.0795010476    4.8563782735
C        1.7773603220   -1.1009347000    2.6615884441
C        1.7289932977   -1.1180829508    4.1453811169
C        1.0564551181   -0.0760669503    6.2553312281
Cl       0.2718968085    1.2262023387    7.1063034337
H        1.9342195810   -1.0167627658   -1.2449618900
H       -0.0083685737   -0.0265113703   -0.0539702096
H        3.7804763637   -2.0549866939    0.0536088854
H        2.7496669411   -2.9731088776    6.8345093396
H       -0.1216738476   -0.0839263493    2.4023371996
H        3.7005350574   -2.0960066883    2.5122708961
H        2.8109258028   -2.9834465765    4.3721748852
H        1.6213096728   -1.1193350844    8.0503764482
H        0.6480358288    0.7548935339    4.3302408269
22   

C        1.8980559752   -1.0331271597   -0.1731792282
C        0.8839389097   -0.3551791815    0.5031449814
C        2.8495432913   -1.7490174798    0.5530048557
C        2.4093039448   -2.0737036855    6.2947489172
C        0.8195491796   -0.3959394278    1.9010808049
C        2.7840373931   -1.7892748273    1.9507154738
C        2.4309130914   -2.0844159633    4.8956159343
C        1.6731244274   -1.1039894170    6.9762151172
C        0.9868948288   -0.1583857434    4.8624001249
C        1.7593974203   -1.1220681199    2.6572113154
C        1.7116182910   -1.1353078037    4.1449256150
C        0.9605282590   -0.1411340254    6.2616278680
Cl       0.0522289860    1.0823515672    7.1068198131
H        1.9483951636   -1.0008368834   -1.2579140618
H        0.1398802377    0.2038818507   -0.0571119052
H        3.6478583163   -2.2703402732    0.0325139910
H        2.9640305657   -2.8234055783    6.8519826316
H       -0.0010183406    0.1319920473    2.3722057000
H        3.5657113416   -2.3344435299    2.4659458932
H        3.0013180558   -2.8699854510    4.4143483766
H        1.6540080720   -1.0917467360    8.0619489403
H        0.4427141978    0.6293905260    4.3567419261
22   

C        1.8784171884   -1.0458569749   -0.1862066303
C        1.0060271859   -0.2077082578    0.5047600906
C        2.7142781411   -1.9009918086    0.5282931402
C        2.5507678318   -1.9574362227    6.3014593330
C        0.9693463852   -0.2243208145    1.9043124404
C        2.6769274359   -1.9169263839    1.9274394269
C        2.5905390630   -1.9439128906    4.9026564373
C        1.6757431032   -1.1164500873    6.9865284089
C        0.8840314116   -0.2522162896    4.8756588401
C        1.8012636599   -1.0769674580    2.6562394865
C        1.7601218999   -1.0926428854    4.1478339143
C        0.8386673890   -0.2601985388    6.2744908970
Cl      -0.2587672327    0.7949710634    7.1225291528
H        1.9065146330   -1.0326063540   -1.2721484272
H        0.3512007884    0.4618654154   -0.0456730036
H        3.3973493904   -2.5576184981   -0.0030176273
H        3.2037849881   -2.6253843544    6.8561989431
H        0.2653820442    0.4556820535    2.3649123707
H        3.3550120760   -2.6070209093    2.4112649981
H        3.2944073280   -2.6238054783    4.4415912715
H        1.6420115723   -1.1241000652    8.0719522407
H        0.2064463646    0.4373913831    4.3918091124
