6    

H       -0.5633364880   -0.0597990763   -0.7746862707
C        0.0265029860    0.3285873984    0.0622781325
H       -0.6640335085    0.6898598266    0.8317421483
O        0.8555078794   -0.6603517933    0.5691650396
H        0.3693021461   -1.4836636018    0.6803959269
Br       1.1592517316    1.7752291708   -0.5751771856
6    

H       -0.5533438890   -0.0855639272   -0.7510458986
C        0.0176082184    0.3321279475    0.0848353986
H       -0.6876668264    0.7292164230    0.8226584286
O        0.8212930762   -0.6421295313    0.6507257606
H        0.4136791201   -1.5103746114    0.5776206288
Br       1.1692762218    1.7554532357   -0.6005047357
6    

H       -0.5660244937   -0.1073059478   -0.7229805947
C        0.0036071176    0.3309986617    0.1031364600
H       -0.7010827656    0.7735627360    0.8152098701
O        0.7673518483   -0.6344633477    0.7259371857
H        0.4809435434   -1.5203888993    0.4858333382
Br       1.1874069145    1.7302239960   -0.6185556166
6    

H       -0.6038158703   -0.1206825484   -0.6896827839
C       -0.0146775220    0.3262446868    0.1179130864
H       -0.7037748770    0.8178593779    0.8128773657
O        0.6999654124   -0.6364032540    0.7873022328
H        0.5667271380   -1.5107512156    0.4089969529
Br       1.2109382935    1.6979839820   -0.6321376192
6    

H       -0.2792838370   -0.1122503149   -0.9316167125
C       -0.0530071288    0.2861443257    0.0629546713
H       -0.9931336426    0.6298234893    0.5074486970
O        0.4857215433   -0.6808208071    0.8633354941
H        0.8221980589   -1.4253921497    0.3532507893
Br       1.1653807057    1.8663605049   -0.0828260891
6    

H       -0.3172652146   -0.1094360940   -0.9326123145
C       -0.0763876410    0.2780286010    0.0628936958
H       -1.0043971999    0.6572237655    0.5039683150
O        0.4121291871   -0.7123613411    0.8589669340
H        0.9225111436   -1.3576735426    0.3551123988
Br       1.2029454636    1.8166571064   -0.0823396725
6    

H       -0.3470516711   -0.0951219522   -0.9405802065
C       -0.0986849618    0.2718421465    0.0608859272
H       -1.0151956673    0.6771397640    0.5027962315
O        0.3506340732   -0.7494748583    0.8376581207
H        1.0134383043   -1.2794657849    0.3760674444
Br       1.2388743898    1.7587359899   -0.0823010727
6    

H       -0.3753010755   -0.0689389742   -0.9534201862
C       -0.1171924212    0.2683668356    0.0560238990
H       -1.0206612888    0.6919612343    0.5075264510
O        0.3026500753   -0.7917456530    0.8006290524
H        1.0910032222   -1.1983819384    0.4167365848
Br       1.2697432603    1.6981847423   -0.0830490317
6    

H       -0.4095412469   -0.0338179425   -0.9679620596
C       -0.1305534697    0.2654958399    0.0479206866
H       -1.0177845387    0.6988427741    0.5218072173
O        0.2692791499   -0.8379763960    0.7479846288
H        1.1516847444   -1.1232876677    0.4770211886
Br       1.2926675790    1.6441641515   -0.0870705316
6    

H       -0.4530585434    0.0074876656   -0.9822020554
C       -0.1379202271    0.2621609083    0.0353002704
H       -1.0046037416    0.6959344100    0.5454244701
O        0.2513387554   -0.8849762839    0.6811041859
H        1.1919756744   -1.0600821392    0.5556259292
Br       1.3067299337    1.6027725353   -0.0941469222
6    

H       -0.5061037529    0.0530545516   -0.9922512336
C       -0.1394461515    0.2585205691    0.0191075890
H       -0.9786103644    0.6839983906    0.5797216505
O        0.2490553683   -0.9282219899    0.6033881813
H        1.2083814522   -1.0099822520    0.6461968028
Br       1.3139865548    1.5763468926   -0.1037999700
6    

H       -0.5618303893    0.0965727284   -0.9960880988
C       -0.1369423178    0.2528388716    0.0011881002
H       -0.9408327966    0.6617503783    0.6225256279
O        0.2623554178   -0.9632881261    0.5193244349
H        1.1995706802   -0.9710181467    0.7414743083
Br       1.3173629474    1.5651724938   -0.1165163957
6    

H       -0.6103203241    0.1336686086   -0.9941809019
C       -0.1313884678    0.2461613851   -0.0156689050
H       -0.8949259461    0.6323446884    0.6679784661
O        0.2892211148   -0.9870997005    0.4346908973
H        1.1649078092   -0.9434950191    0.8348089703
Br       1.3201677998    1.5664709752   -0.1340668405
6    

H       -0.6460142407    0.1597704473   -0.9875326486
C       -0.1230715823    0.2396502919   -0.0285349156
H       -0.8490615522    0.5977351168    0.7091610892
O        0.3282462997   -0.9985999640    0.3556470561
H        1.1071360904   -0.9316587934    0.9213806572
Br       1.3210540778    1.5806252183   -0.1596583155
6    

H       -0.6679292228    0.1735081384   -0.9771652977
C       -0.1113872168    0.2352533965   -0.0358973131
H       -0.8097432799    0.5619878967    0.7419099448
O        0.3774350281   -0.9984456838    0.2882830578
H        1.0308205092   -0.9410299855    0.9976488602
Br       1.3169336847    1.6075746076   -0.1952333407
6    

H       -0.6766132790    0.1765241050   -0.9644207103
C       -0.0951204216    0.2348364147   -0.0381330478
H       -0.7772792270    0.5306497762    0.7659359433
O        0.4350534840   -0.9885876171    0.2371669014
H        0.9413891649   -0.9733144171    1.0604121375
Br       1.3051297936    1.6446851914   -0.2392665551
6    

H       -0.6753393114    0.1687487238   -0.9506271030
C       -0.0759810870    0.2376205688   -0.0365323941
H       -0.7504364263    0.5065409938    0.7832693437
O        0.4992795391   -0.9702849559    0.2051087478
H        0.8434556474   -1.0239495674    1.1061796402
Br       1.2858670524    1.6876943998   -0.2876829556
6    

H       -0.6678342348    0.1537729079   -0.9353287857
C       -0.0541035143    0.2444418254   -0.0327484379
H       -0.7222314691    0.4946198709    0.7980337800
O        0.5686652282   -0.9449394665    0.1926044476
H        0.7418319019   -1.0861820341    1.1311410242
Br       1.2612784149    1.7286160395   -0.3363304650
6    

H       -0.6600247703    0.1315603294   -0.9170160997
C       -0.0317514077    0.2540993244   -0.0283176442
H       -0.6877770345    0.4970956930    0.8141043508
O        0.6415120808   -0.9122691955    0.2000685532
H        0.6407428297   -1.1527422561    1.1327858300
Br       1.2338911660    1.7630614695   -0.3804350573
6    

H       -0.6565527615    0.1040169338   -0.8927035936
C       -0.0106182736    0.2672342124   -0.0234255766
H       -0.6455905375    0.5180686533    0.8326885083
O        0.7145065452   -0.8715399421    0.2273489730
H        0.5460383080   -1.2178260418    1.1088566386
Br       1.2066279175    1.7868277891   -0.4178072392
6    

H       -0.6541131008    0.0707661571   -0.8630935894
C        0.0070418498    0.2813309860   -0.0157236117
H       -0.6097366285    0.5514958109    0.8477899801
O        0.7794815098   -0.8248474683    0.2724918507
H        0.4640668712   -1.2806980957    1.0581460728
Br       1.1837256052    1.7998394336   -0.4510328176
6    

H       -0.6418144917    0.0351780191   -0.8356495194
C        0.0202152108    0.2955345926   -0.0029394281
H       -0.5973132633    0.5873659849    0.8530064592
O        0.8292244082   -0.7759765323    0.3327646787
H        0.4010101576   -1.3405730816    0.9833066522
Br       1.1676640157    1.8038219900   -0.4828482425
6    

H       -0.6176063277    0.0005521320   -0.8135860557
C        0.0279370110    0.3091127819    0.0155685208
H       -0.6089721327    0.6214021149    0.8498862253
O        0.8598532687   -0.7292997456    0.4051711012
H        0.3628959842   -1.3956224897    0.8906087906
Br       1.1580037709    1.8004475411   -0.5146712852
6    

H       -0.5883996119   -0.0312228398   -0.7942825515
C        0.0300331009    0.3205165246    0.0382941858
H       -0.6345627278    0.6546389621    0.8420592219
O        0.8687437554   -0.6898228926    0.4854328259
H        0.3520975846   -1.4443088187    0.7870949006
Br       1.1552147913    1.7905936092   -0.5461351047
