22   

C        1.8654159532   -1.0660878329   -0.1744318724
C        1.1522274230   -0.0843871825    0.5133809863
C        2.5628541969   -2.0384032052    0.5420544598
C        2.6657756825   -1.8148234982    6.3045494093
C        1.1394482465   -0.0730449816    1.9132880421
C        2.5495692481   -2.0259412178    1.9417598478
C        2.7295918291   -1.7829406733    4.9070282501
C        1.6636551037   -1.1135363555    6.9758558953
C        0.7918047745   -0.3553009206    4.8549482782
C        1.8458659547   -1.0347861920    2.6605102600
C        1.8023724922   -1.0437055815    4.1483916348
C        0.7214036226   -0.3824896208    6.2524946726
Cl      -0.5422088485    0.4823613197    7.0841138078
H        1.8746747788   -1.0752697901   -1.2607358458
H        0.6073075464    0.6756755875   -0.0392737610
H        3.1114786888   -2.8117602820    0.0120307921
H        3.3994024576   -2.3839477636    6.8686179590
H        0.5858647950    0.7243756173    2.3946060795
H        3.0826904968   -2.8219901164    2.4475000496
H        3.5384774799   -2.3277995977    4.4348711271
H        1.6101835300   -1.1359649792    8.0602778714
H        0.0182903248    0.2009933802    4.3405300068
22   

C        1.8817506231   -1.0657777939   -0.1571827064
C        1.2826715370   -0.0051045782    0.5261875465
C        2.4482353944   -2.1209274633    0.5616140661
C        2.7324625508   -1.6791319962    6.3070251552
C        1.2513589074    0.0003645067    1.9257567691
C        2.4167726195   -2.1137927313    1.9611915550
C        2.7884021354   -1.6678720082    4.9088814893
C        1.6576277846   -1.0792119824    6.9682458319
C        0.6999759939   -0.4606609906    4.8379388462
C        1.8215456537   -1.0507702391    2.6664203553
C        1.7750222552   -1.0547873246    4.1503950299
C        0.6368223653   -0.4682759533    6.2360808712
Cl      -0.7093886626    0.2722281571    7.0576378836
H        1.9054199844   -1.0707713505   -1.2432910182
H        0.8428519878    0.8184835083   -0.0290446552
H        2.9088438457   -2.9510326292    0.0336699061
H        3.5263902349   -2.1513811149    6.8787829519
H        0.7943944697    0.8456769663    2.4299465120
H        2.8442737415   -2.9573841887    2.4930434394
H        3.6417567568   -2.1249652660    4.4185080290
H        1.6096841018   -1.0859492388    8.0531314980
H       -0.1165358209   -0.0001395109    4.2926730884
22   

C        1.8897186374   -1.0596640890   -0.1503390365
C        1.4065287839    0.0545588271    0.5422180940
C        2.3238492939   -2.1843912218    0.5576543555
C        2.7969500093   -1.5620472803    6.2942062328
C        1.3560480750    0.0424516740    1.9411845361
C        2.2730948292   -2.1946866096    1.9567399076
C        2.8332146591   -1.5736498270    4.8954165028
C        1.6720167224   -1.0636533321    6.9590704388
C        0.6272971733   -0.5893239476    4.8319910472
C        1.7841173881   -1.0842979898    2.6639067469
C        1.7452959146   -1.0927938592    4.1473274417
C        0.5833067132   -0.5743054582    6.2308789093
Cl      -0.8177394583    0.0481647564    7.0584148011
H        1.9289574713   -1.0509017100   -1.2359700833
H        1.0731140480    0.9317402922   -0.0049439509
H        2.6990938454   -3.0516607208    0.0219492553
H        3.6434982191   -1.9361659322    6.8630873323
H        0.9914952754    0.9190071585    2.4683163428
H        2.6050356927   -3.0769834587    2.4955170835
H        3.7160012664   -1.9487907302    4.3863891500
H        1.6391618704   -1.0522492794    8.0444766754
H       -0.2259854440   -0.2151731312    4.2755081437
22   

C        1.8855117071   -1.0596038216   -0.1460419475
C        1.5405699925    0.1011458361    0.5541189623
C        2.1698170710   -2.2372090337    0.5533976172
C        2.8303650860   -1.4267490218    6.2874853118
C        1.4770951358    0.0822081567    1.9524893762
C        2.1058340295   -2.2540351433    1.9519651632
C        2.8579240961   -1.4524009743    4.8886683277
C        1.6604419062   -1.0480184939    6.9551465831
C        0.5543651100   -0.7193771196    4.8311527410
C        1.7495135613   -1.0986058406    2.6620860418
C        1.7150827967   -1.1100584424    4.1483505031
C        0.5185944169   -0.6907295046    6.2301414893
Cl      -0.9352220892   -0.2112139465    7.0617294029
H        1.9354674539   -1.0456410819   -1.2311776987
H        1.3252864227    1.0185045443    0.0136598466
H        2.4409805712   -3.1388874435    0.0117408764
H        3.7173676292   -1.6963661978    6.8538456098
H        1.2199630736    0.9881240910    2.4936315632
H        2.3276611007   -3.1699205051    2.4917896852
H        3.7693698567   -1.7340221615    4.3693823573
H        1.6340816210   -1.0255559551    8.0405557240
H       -0.3318883728   -0.4409184289    4.2696066975
22   

C        1.8867695947   -1.0679393993   -0.1450569217
C        1.7113642958    0.1298653349    0.5563512795
C        2.0049123804   -2.2746449610    0.5532629064
C        2.8667302865   -1.2676090277    6.2912661615
C        1.6518194828    0.1191497109    1.9550143484
C        1.9449541786   -2.2828231860    1.9521273360
C        2.9005042663   -1.2904607791    4.8925173744
C        1.6558375902   -1.0417377037    6.9557740248
C        0.5214062555   -0.8600978288    4.8288795772
C        1.7601612421   -1.0886231026    2.6611787249
C        1.7249479228   -1.0963011851    4.1517417739
C        0.4787517929   -0.8353054877    6.2278145482
Cl      -1.0266968238   -0.5468252622    7.0557075151
H        1.9335286595   -1.0606869617   -1.2304001360
H        1.6236362983    1.0685307404    0.0167273865
H        2.1441670649   -3.2053435535    0.0107114915
H        3.7794911331   -1.4220110276    6.8598276714
H        1.5225434670    1.0494941876    2.5004496854
H        2.0392099306   -3.2192091851    2.4942906734
H        3.8393014841   -1.4573402261    4.3722401125
H        1.6241535616   -1.0222408999    8.0410977742
H       -0.3898110102   -0.6969841529    4.2618173448
22   

C        1.8770479053   -1.0790290997   -0.1465643459
C        1.9016239288    0.1358288169    0.5471119661
C        1.8125647976   -2.2849798761    0.5601396535
C        2.8893632216   -1.0907735726    6.3028693078
C        1.8618624204    0.1430628137    1.9465281020
C        1.7729046832   -2.2749138902    1.9597074164
C        2.9384748042   -1.0969406571    4.9043882578
C        1.6527462431   -1.0437506137    6.9567087071
C        0.5233633284   -1.0093516745    4.8197192309
C        1.7974820640   -1.0625048667    2.6608618016
C        1.7546367197   -1.0562277842    4.1535174278
C        0.4647954331   -1.0028532239    6.2182965140
Cl      -1.0740684996   -0.9443516877    7.0328368220
H        1.9075195505   -1.0859042247   -1.2324888007
H        1.9510866963    1.0734274879    0.0008188297
H        1.7928036456   -3.2292925386    0.0236256855
H        3.8095818436   -1.1224349254    6.8794395539
H        1.8802448169    1.0852815402    2.4865289536
H        1.7222298965   -3.2105621935    2.5090050045
H        3.8954001568   -1.1333551273    4.3916877976
H        1.6087908167   -1.0387553663    8.0417682442
H       -0.3963963300   -0.9776985958    4.2438936585
22   

C        1.8731359993   -1.0909386230   -0.1472263271
C        2.0889045330    0.1088117263    0.5392730361
C        1.6243277935   -2.2681095541    0.5667833923
C        2.8687709266   -0.9165679753    6.3128432013
C        2.0583118205    0.1291716269    1.9387864214
C        1.5943182515   -2.2449178548    1.9664019851
C        2.9311753123   -0.9102793640    4.9149019638
C        1.6320426958   -1.0465396321    6.9548325375
C        0.5293714842   -1.1658416825    4.8070943580
C        1.8187629009   -1.0492129978    2.6618444988
C        1.7598458739   -1.0256666352    4.1515139173
C        0.4575634792   -1.1734169692    6.2050127169
Cl      -1.0810103403   -1.3420721900    7.0046058887
H        1.8958142221   -1.1078965048   -1.2332311246
H        2.2773614964    1.0251403800   -0.0128043675
H        1.4528477179   -3.2001519437    0.0358730095
H        3.7792001983   -0.8234468793    6.8982350833
H        2.2185231547    1.0616580529    2.4720990622
H        1.3981903716   -3.1585250277    2.5201467201
H        3.8896242004   -0.8171912909    4.4123534619
H        1.5778623306   -1.0526420854    8.0394235309
H       -0.3804250466   -1.2668501052    4.2234965286
22   

C        1.8694866743   -1.0925238865   -0.1504215911
C        2.2486656311    0.0630310901    0.5404303119
C        1.4553620422   -2.2245663910    0.5591919459
C        2.8387931067   -0.7581387622    6.3065432131
C        2.2164639975    0.0840298570    1.9398600882
C        1.4237809540   -2.2013153711    1.9587350035
C        2.8980574286   -0.7532402354    4.9084903479
C        1.6299328746   -1.0399291352    6.9522647485
C        0.5484457002   -1.3134687543    4.8079695423
C        1.8127546079   -1.0512419071    2.6610595672
C        1.7496278639   -1.0200745335    4.1461833151
C        0.4805135099   -1.3207081992    6.2060283294
Cl      -1.0228574760   -1.6787255497    7.0102439780
H        1.8934509896   -1.1097346534   -1.2363953285
H        2.5646227520    0.9455622268   -0.0084447278
H        1.1572433528   -3.1220588893    0.0247618141
H        3.7310323769   -0.5472813622    6.8893632408
H        2.5010961081    0.9860793867    2.4734715494
H        1.1015009763   -3.0826548945    2.5055726797
H        3.8385011936   -0.5460172187    4.4061712776
H        1.5785996004   -1.0456917263    8.0369965219
H       -0.3444822555   -1.5316004994    4.2305386261
22   

C        1.8715374966   -1.0859451445   -0.1512518087
C        2.3880272939    0.0066968260    0.5515153797
C        1.3148535254   -2.1618517703    0.5467505796
C        2.8069732574   -0.6236050938    6.3006282500
C        2.3490331427    0.0215750458    1.9508241655
C        1.2761871709   -2.1451789467    1.9461495007
C        2.8568930247   -0.6267729449    4.9022175546
C        1.6425383878   -1.0328781141    6.9583088460
C        0.5855664214   -1.4481489871    4.8249216632
C        1.7967097633   -1.0559966020    2.6642813309
C        1.7438329276   -1.0338390520    4.1472658351
C        0.5277221830   -1.4477014887    6.2233736156
Cl      -0.9228404291   -1.9585159066    7.0420162446
H        1.9013208598   -1.0983324212   -1.2371486861
H        2.8166374693    0.8462354508    0.0116815542
H        0.9133692609   -3.0123919742    0.0032564503
H        3.6731807693   -0.3070612951    6.8748343887
H        2.7412001358    0.8809650953    2.4861585343
H        0.8492381235   -2.9910397508    2.4765694675
H        3.7688370203   -0.3207567670    4.3983249218
H        1.5988186925   -1.0323079165    8.0433894707
H       -0.2880366178   -1.7632572161    4.2634458729
22   

C        1.9239989827   -1.0574220227   -0.1569317043
C        1.4077224031   -2.1643799985    0.5207300867
C        2.3712403664    0.0508020126    0.5661464119
C        0.6237509563   -1.7473949774    6.2200375167
C        1.3402876313   -2.1631384872    1.9190909397
C        2.3038773884    0.0506264101    1.9644160098
C        0.6905682263   -1.7505492517    4.8223177582
C        1.5760799910   -1.0456484212    6.9636232977
C        2.6567440954   -0.3549028791    4.9160461054
C        1.7917720734   -1.0585517889    2.6638525530
C        1.7058053476   -1.0507126246    4.1459949538
C        2.5968407202   -0.3472828883    6.3143274815
Cl       3.7912895307    0.5208860605    7.2390696993
H        1.9761445285   -1.0577126453   -1.2420573707
H        1.0610801834   -3.0289382601   -0.0381412277
H        2.7670821681    0.9163792763    0.0425981109
H       -0.1706361040   -2.2877285122    6.7272244904
H        0.9504764759   -3.0433318356    2.4196607609
H        2.6374051871    0.9341491049    2.4989614511
H       -0.0706765483   -2.2883847747    4.2666365254
H        1.5284376025   -1.0406400655    8.0485330159
H        3.4721087230    0.1759623796    4.4369636065
22   

C        1.9156448484   -1.0542981511   -0.1662575750
C        1.2709784306   -2.0915272137    0.5077698071
C        2.4950785206   -0.0158045621    0.5625104608
C        0.7185244023   -1.8558912172    6.2391497524
C        1.2098223391   -2.0926732371    1.9065387034
C        2.4336020630   -0.0179137037    1.9609020406
C        0.7809404749   -1.8549160517    4.8411146162
C        1.5880795377   -1.0544033443    6.9797542230
C        2.5811411976   -0.2583026006    4.9273793203
C        1.8001875817   -1.0645926496    2.6658985752
C        1.7043515320   -1.0469758786    4.1511526046
C        2.5246969273   -0.2539982277    6.3257402631
Cl       3.6247260478    0.7363876851    7.2451336941
H        1.9627833955   -1.0532321355   -1.2516169665
H        0.8175687317   -2.9025498390   -0.0549556386
H        2.9887270547    0.8006278816    0.0430810238
H       -0.0102991193   -2.4793371140    6.7494622641
H        0.7135394475   -2.9328579536    2.3769508545
H        2.8717595360    0.8285106972    2.4764714694
H        0.0704108058   -2.4803819950    4.3141090465
H        1.5429122949   -1.0524915089    8.0647838583
H        3.3463405186    0.3552198701    4.4682298207
22   

C        1.9066897508   -1.0512420816   -0.1814875783
C        1.1046496705   -1.9741638363    0.4866264835
C        2.6490889875   -0.1307510294    0.5549118074
C        0.8516739564   -1.9949097972    6.2463883569
C        1.0447041234   -1.9772421068    1.8855660477
C        2.5889504705   -0.1340583994    1.9532761328
C        0.9131400034   -1.9899804494    4.8482249835
C        1.5934333515   -1.0745799048    6.9849147011
C        2.4552891187   -0.1477294659    4.9289771327
C        1.7831880809   -1.0595884639    2.6581512216
C        1.7155819753   -1.0676806849    4.1487511403
C        2.3985610163   -0.1469637668    6.3273484534
Cl       3.3294168137    1.0075404975    7.2424802968
H        1.9528253745   -1.0493393575   -1.2668931142
H        0.5232280109   -2.6946606309   -0.0815955125
H        3.2768697047    0.5920529624    0.0415463810
H        0.2237883866   -2.7183099062    6.7590148705
H        0.3992692524   -2.7247019170    2.3263737834
H        3.1928554928    0.6098623647    2.4556234389
H        0.3093224611   -2.7342625281    4.3468612952
H        1.5479747333   -1.0756903459    8.0699381661
H        3.0998821976    0.5991728468    4.4867137791
22   

C        1.9088800841   -1.0314824839   -0.1735918517
C        0.9646762594   -1.8224465007    0.4811012825
C        2.7932602751   -0.2547457320    0.5746718403
C        0.9965260537   -2.1238575635    6.2350906344
C        0.9020282450   -1.8333067174    1.8797617453
C        2.7297178727   -0.2660476274    1.9729325413
C        1.0591569178   -2.1112358131    4.8371189776
C        1.5965068310   -1.1024143720    6.9724765615
C        2.3147991752   -0.0581865798    4.9167787248
C        1.7727584943   -1.0465709340    2.6575503920
C        1.7304121220   -1.0857127287    4.1448657394
C        2.2562170837   -0.0640216340    6.3150453112
Cl       2.9928656848    1.2234308675    7.2293846250
H        1.9577447610   -1.0234072736   -1.2588460967
H        0.2738186955   -2.4296637776   -0.0968289123
H        3.5382721474    0.3546416597    0.0710251905
H        0.4825451986   -2.9319185734    6.7480713948
H        0.1365870202   -2.4511887433    2.3334194959
H        3.4604045947    0.3305955724    2.5061846068
H        0.5938163535   -2.9380281688    4.3139984086
H        1.5498664901   -1.1085172509    8.0574287605
H        2.8100499734    0.7856811732    4.4526753590
22   

C        1.9067435893   -1.0300698375   -0.1593742524
C        0.8725365802   -1.7061705750    0.4920847217
C        2.8818214811   -0.3680840509    0.5902993108
C        1.1245264002   -2.1862753110    6.2345777756
C        0.8132419300   -1.7187954840    1.8907538739
C        2.8211110571   -0.3809033146    1.9888180496
C        1.1819078091   -2.1745217916    4.8364758645
C        1.6113103127   -1.0979222078    6.9631944409
C        2.2089703866    0.0081459526    4.8999767613
C        1.7828766061   -1.0524508686    2.6617666373
C        1.7291517812   -1.0788016672    4.1451978944
C        2.1547366302    0.0039509822    6.2984905621
Cl       2.7538904400    1.3665741550    7.2039518959
H        1.9534568138   -1.0203284130   -1.2447036460
H        0.1111730729   -2.2201874394   -0.0876332046
H        3.6915526894    0.1531077826    0.0875956932
H        0.7046366867   -3.0431313224    6.7539401301
H       -0.0107302170   -2.2374945815    2.3695900806
H        3.6046646991    0.1226120076    2.5456905699
H        0.8135446416   -3.0389460340    4.2936855297
H        1.5685522151   -1.1024612961    8.0483081908
H        2.6144682033    0.8850537914    4.4072665899
22   

C        1.9148336214   -1.0233596378   -0.1566801454
C        0.8042228959   -1.5818674063    0.4829403514
C        2.9589452738   -0.4878027746    0.6033782118
C        1.2366794776   -2.2518681625    6.2268471847
C        0.7396445688   -1.6059214805    1.8811715718
C        2.8925775792   -0.5122095864    2.0016255176
C        1.2895635568   -2.2390873059    4.8286056275
C        1.6090492802   -1.1140092608    6.9497163803
C        2.0867039349    0.0414969993    4.8814632424
C        1.7849248260   -1.0753860717    2.6565474456
C        1.7099504169   -1.0893605757    4.1386937575
C        2.0364599593    0.0366800964    6.2802072557
Cl       2.5013352134    1.4541907324    7.1800898818
H        1.9657820586   -1.0042010465   -1.2416914941
H       -0.0107440005   -1.9942210908   -0.1050618601
H        3.8233539096   -0.0537709491    0.1090022737
H        0.9102298208   -3.1460498256    6.7503922172
H       -0.1334264730   -2.0303704982    2.3675037489
H        3.7142204003   -0.1010294454    2.5803698662
H        1.0120406005   -3.1305844723    4.2741609950
H        1.5698548723   -1.1189197939    8.0349595277
H        2.4111826444    0.9424917035    4.3709227400
22   

C        1.9206992130   -1.0215344298   -0.1551111704
C        0.7461787695   -1.4430894142    0.4766870712
C        3.0222752198   -0.6282535528    0.6119908041
C        1.3713732973   -2.2834174663    6.2362282980
C        0.6758037405   -1.4740365758    1.8745322644
C        2.9496763958   -0.6598410664    2.0098415129
C        1.4162901045   -2.2798422720    4.8376390444
C        1.6161310852   -1.1020049643    6.9447877069
C        1.9521565313    0.0774595153    4.8619042584
C        1.7803512185   -1.0916433592    2.6528279085
C        1.6962753894   -1.0956750306    4.1372228300
C        1.9094782888    0.0825681771    6.2609724599
Cl       2.2213970413    1.5518275715    7.1436089039
H        1.9762060468   -0.9964857285   -1.2397771564
H       -0.1128229957   -1.7429914121   -0.1167173158
H        3.9343687856   -0.2973212110    0.1235730748
H        1.1506315567   -3.2030358905    6.7708374691
H       -0.2409781285   -1.7914944727    2.3625712883
H        3.8074775069   -0.3535325435    2.6014562096
H        1.2378699747   -3.1988156218    4.2868628296
H        1.5831795131   -1.0994124125    8.0302452589
H        2.1799738505    0.9975975745    4.3329682332
22   

C        1.9192679978   -1.0250354662   -0.1524263638
C        0.6987458432   -1.2834863807    0.4806388098
C        3.0676768209   -0.7967653984    0.6134054221
C        1.5297347044   -2.3117807010    6.2465354143
C        0.6289114095   -1.3160455670    1.8785134933
C        2.9950181644   -0.8299391371    2.0112568771
C        1.5732877159   -2.3113380562    4.8478669039
C        1.6226723383   -1.1039192335    6.9472270426
C        1.8045148305    0.0953267023    4.8563782453
C        1.7783251658   -1.0974185842    2.6530004908
C        1.7017855179   -1.1057792903    4.1420287539
C        1.7621382941    0.1042939104    6.2554908929
Cl       1.8846812975    1.6069852976    7.1283617349
H        1.9746032891   -0.9986991348   -1.2370704308
H       -0.1953825812   -1.4561286148   -0.1115540115
H        4.0157259360   -0.5922400664    0.1241747389
H        1.4267051619   -3.2484958225    6.7870784196
H       -0.3197955320   -1.5094283086    2.3706307388
H        3.8862786057   -0.6497378323    2.6053611099
H        1.5090692790   -3.2471148369    4.3001056200
H        1.5900361597   -1.0984911765    8.0326835721
H        1.9153680422    1.0314085049    4.3178791235
22   

C        1.9066783645   -1.0356912397   -0.1520775538
C        0.6687636708   -1.1029637330    0.4965345603
C        3.0863558066   -0.9889251622    0.5989535641
C        1.7064707067   -2.3235023863    6.2452077013
C        0.6122555796   -1.1235409782    1.8952476467
C        3.0269456110   -1.0096383119    1.9976995135
C        1.7616368403   -2.3127821488    4.8469766542
C        1.6219411953   -1.1165076222    6.9487184172
C        1.6479341065    0.1025515390    4.8614924522
C        1.7912002247   -1.0771869095    2.6538733323
C        1.7327031871   -1.0985959668    4.1458371986
C        1.5923062981    0.1013520249    6.2602018660
Cl       1.4870806643    1.6033678363    7.1364862712
H        1.9518030127   -1.0193162835   -1.2373898067
H       -0.2485465149   -1.1387932722   -0.0841815390
H        4.0485167677   -0.9360990397    0.0975348143
H        1.7292481594   -3.2671150954    6.7830871474
H       -0.3479404968   -1.1751176931    2.4002994337
H        3.9421800173   -0.9727445871    2.5814124713
H        1.8273113414   -3.2465225909    4.2958792871
H        1.5788644990   -1.1189558504    8.0338218953
H        1.6251473048    1.0456660948    4.3243209315
22   

C        1.8952459754   -1.0343609914   -0.1523753036
C        0.6718857843   -0.9045600046    0.5139937409
C        3.0785253129   -1.1721054649    0.5815562093
C        1.8839049972   -2.3111930831    6.2347644917
C        0.6335979653   -0.9101546355    1.9134280494
C        3.0377569729   -1.1773383172    1.9811261507
C        1.9557371563   -2.2794311863    4.8376350007
C        1.6203240226   -1.1350752920    6.9461785792
C        1.4988232193    0.0953948984    4.8689439568
C        1.8176335017   -1.0384836922    2.6556548496
C        1.7730643706   -1.0726723899    4.1455982304
C        1.4249509585    0.0724465955    6.2666173452
Cl       1.0895588585    1.5344827788    7.1525981250
H        1.9260044368   -1.0305596814   -1.2383071509
H       -0.2486017407   -0.8017471979   -0.0535580727
H        4.0290059488   -1.2760262648    0.0660552786
H        2.0296005348   -3.2478020204    6.7655875089
H       -0.3165104851   -0.8163224873    2.4313504207
H        3.9559622935   -1.2868139708    2.5508247789
H        2.1520451905   -3.1911141609    4.2807017502
H        1.5627595400   -1.1542748043    8.0304432728
H        1.3444001603    1.0303095069    4.3392565219
22   

C        1.8884047532   -1.0376195393   -0.1529689056
C        0.6997983966   -0.7361880359    0.5200117810
C        3.0439434325   -1.3410542399    0.5746732717
C        2.0399522208   -2.2666778637    6.2409709769
C        0.6688184309   -0.7352966724    1.9196055650
C        3.0108443454   -1.3396813507    1.9744145325
C        2.1151954163   -2.2309898005    4.8441296267
C        1.6241931603   -1.1319004643    6.9462049637
C        1.3575993891    0.0652586007    4.8632905706
C        1.8270618177   -1.0272932529    2.6580241702
C        1.7857186150   -1.0595287318    4.1437948490
C        1.2792648414    0.0377309567    6.2605666784
Cl       0.7536846263    1.4476906601    7.1385362290
H        1.9131804839   -1.0390202914   -1.2390604062
H       -0.2004534157   -0.5061934561   -0.0426959105
H        3.9672162132   -1.5785183049    0.0539791384
H        2.2998627995   -3.1754843483    6.7764607160
H       -0.2585158937   -0.5118926330    2.4390065544
H        3.9097148367   -1.5762155331    2.5361504441
H        2.4256391464   -3.1152293546    4.2950874451
H        1.5631899301   -1.1546508683    8.0302129036
H        1.0886949359    0.9730050813    4.3322489654
22   

C        1.8896772624   -1.0422990714   -0.1568787487
C        0.7456888865   -0.6022761327    0.5155986446
C        2.9934835710   -1.4960053686    0.5714637023
C        2.1733415102   -2.2324644163    6.2549062708
C        0.7071759389   -0.6144591702    1.9149359956
C        2.9531182597   -1.5079657930    1.9708842838
C        2.2346862575   -2.2058628176    4.8571913082
C        1.6387001716   -1.1435480867    6.9508944161
C        1.2273487966   -0.0092910306    4.8568200908
C        1.8123664720   -1.0628142956    2.6584295290
C        1.7677294487   -1.0902956136    4.1416390383
C        1.1625827413   -0.0282542599    6.2548443344
Cl       0.4950837199    1.3279270431    7.1211242312
H        1.9202252900   -1.0328725778   -1.2427842317
H       -0.1153025843   -0.2537675157   -0.0476391044
H        3.8838222445   -1.8377452917    0.0514117157
H        2.5370618904   -3.0998295133    6.7986134782
H       -0.1919333948   -0.2829547535    2.4256448962
H        3.8195609355   -1.8544689467    2.5259738583
H        2.6378744720   -3.0610536279    4.3231117434
H        1.5887040692   -1.1595054600    8.0355878575
H        0.8631034815    0.8642327136    4.3257491086
22   

C        1.8912026924   -1.0397553238   -0.1596785248
C        0.8004869884   -0.4813503188    0.5107397029
C        2.9272475997   -1.6258543898    0.5711044368
C        2.2884848213   -2.1603334590    6.2804746904
C        0.7459671063   -0.5101844849    1.9093087604
C        2.8711024513   -1.6545776485    1.9696349327
C        2.3269167383   -2.1565655716    4.8817038118
C        1.6531982734   -1.1209383606    6.9648801752
C        1.0986373543   -0.0795040039    4.8563782670
C        1.7773603220   -1.1009347000    2.6615884441
C        1.7289932977   -1.1180829508    4.1453811169
C        1.0564482873   -0.0760712198    6.2553311786
Cl       0.2718855605    1.2261953990    7.1063033989
H        1.9342329918   -1.0167403131   -1.2449604741
H       -0.0083653278   -0.0265069092   -0.0539703600
H        3.7804949678   -2.0549536970    0.0536114310
H        2.7496656366   -2.9731099901    6.8345091533
H       -0.1216775948   -0.0839333986    2.4023367247
H        3.7005463837   -2.0959842114    2.5122739047
H        2.8109281035   -2.9834447470    4.3721739930
H        1.6213030144   -1.1193394231    8.0503763160
H        0.6480291799    0.7548896989    4.3302409136
22   

C        1.8980525696   -1.0331316097   -0.1731796472
C        0.8839375127   -0.3551809711    0.5031448610
C        2.8495389220   -1.7490233600    0.5530042389
C        2.4093029126   -2.0737045406    6.2947489148
C        0.8195491796   -0.3959394278    1.9010808049
C        2.7840343621   -1.7892790585    1.9507149626
C        2.4309130914   -2.0844159633    4.8956159343
C        1.6731218704   -1.1039915167    6.9762151998
C        0.9868922924   -0.1583876756    4.8624002878
C        1.7593974203   -1.1220681199    2.6572113154
C        1.7116182910   -1.1353078037    4.1449256150
C        0.9605248268   -0.1411367519    6.2616280233
Cl       0.0522233379    1.0823471336    7.1068200617
H        1.9483907650   -1.0008425622   -1.2579145639
H        0.1398792389    0.2038807152   -0.0571119014
H        3.6478521485   -2.2703486559    0.0325131184
H        2.9640299564   -2.8234061620    6.8519825738
H       -0.0010171442    0.1319939908    2.3722055367
H        3.5657074781   -2.3344494518    2.4659447973
H        3.0013192767   -2.8699847511    4.4143487584
H        1.6540048543   -1.0917494246    8.0619490204
H        0.4427106210    0.6293880825    4.3567424566
22   

C        1.8784172008   -1.0458569536   -0.1862066314
C        1.0060271927   -0.2077082444    0.5047600912
C        2.7142781539   -1.9009917897    0.5282931359
C        2.5507678413   -1.9574362102    6.3014593332
C        0.9693463852   -0.2243208145    1.9043124404
C        2.6769274435   -1.9169263736    1.9274394237
C        2.5905390630   -1.9439128906    4.9026564373
C        1.6757431158   -1.1164500692    6.9865284070
C        0.8840314156   -0.2522162824    4.8756588372
C        1.8012636599   -1.0769674580    2.6562394865
C        1.7601218999   -1.0926428854    4.1478339143
C        0.8386673986   -0.2601985239    6.2744908928
Cl      -0.2587672127    0.7949710917    7.1225291441
H        1.9065146508   -1.0326063227   -1.2721484272
H        0.3512007972    0.4618654312   -0.0456730017
H        3.3973494087   -2.5576184707   -0.0030176333
H        3.2037850018   -2.6253843374    6.8561989444
H        0.2653820370    0.4556820507    2.3649123641
H        3.3550120873   -2.6070208975    2.4112649909
H        3.2944073260   -2.6238054822    4.4415912735
H        1.6420115913   -1.1241000368    8.0719522387
H        0.2064463641    0.4373913893    4.3918091104
