22   

C        1.8654165786   -1.0660873126   -0.1744318885
C        1.1522276577   -0.0843869649    0.5133809905
C        2.5628550876   -2.0384025133    0.5420544193
C        2.6657755790   -1.8148236445    6.3045493992
C        1.1394482465   -0.0730449816    1.9132880421
C        2.5495699386   -2.0259407084    1.9417598084
C        2.7295918291   -1.7829406733    4.9070282501
C        1.6636548562   -1.1135367028    6.9758558769
C        0.7918045404   -0.3553012446    4.8549482613
C        1.8458659547   -1.0347861920    2.6605102600
C        1.8023724922   -1.0437055815    4.1483916348
C        0.7214032998   -0.3824900681    6.2524946514
Cl      -0.5422093521    0.4823606206    7.0841137772
H        1.8746755427   -1.0752691361   -1.2607358606
H        0.6073076534    0.6756757378   -0.0392737287
H        3.1114799540   -2.8117593153    0.0120307331
H        3.3994023901   -2.3839478686    6.8686179440
H        0.5858645224    0.7243754169    2.3946060979
H        3.0826914844   -2.8219894445    2.4474999450
H        3.5384775788   -2.3277994914    4.4348711816
H        1.6101832310   -1.1359654154    8.0602778483
H        0.0182900236    0.2009929507    4.3405299780
22   

C        1.8817727475   -1.0657643719   -0.1571828223
C        1.2826803788   -0.0050989640    0.5261877274
C        2.4482647018   -2.1209103080    0.5616136046
C        2.7324619805   -1.6791327442    6.3070251447
C        1.2513589074    0.0003645067    1.9257567691
C        2.4167937040   -2.1137808236    1.9611909317
C        2.7884021354   -1.6678720082    4.9088814893
C        1.6576266190   -1.0792138574    6.9682458205
C        0.6999750577   -0.4606626105    4.8379388748
C        1.8215456537   -1.0507702391    2.6664203553
C        1.7750222552   -1.0547873246    4.1503950299
C        0.6368209728   -0.4682782983    6.2360808616
Cl      -0.7093909115    0.2722243202    7.0576378199
H        1.9054481195   -1.0707540852   -1.2432910195
H        0.8428576189    0.8184876687   -0.0290440872
H        2.9088853689   -2.9510085734    0.0336692509
H        3.5263898291   -2.1513815343    6.8787829868
H        0.7943857188    0.8456723359    2.4299462772
H        2.8443021501   -2.9573694768    2.4930412503
H        3.6417579503   -2.1249642652    4.4185093342
H        1.6096826427   -1.0859516606    8.0531314698
H       -0.1165372175   -0.0001417624    4.2926733159
22   

C        1.8897783517   -1.0596372900   -0.1503377885
C        1.4065528325    0.0545701122    0.5422190608
C        2.3239279318   -2.1843569641    0.5576554771
C        2.7969493002   -1.5620483201    6.2942062544
C        1.3560480750    0.0424516740    1.9411845361
C        2.2731509498   -2.1946626457    1.9567401148
C        2.8332146591   -1.5736498270    4.8954165028
C        1.6720153750   -1.0636558912    6.9590704633
C        0.6272961714   -0.5893260961    4.8319910938
C        1.7841173881   -1.0842979898    2.6639067469
C        1.7452959146   -1.0927938592    4.1473274417
C        0.5833051786   -0.5743086006    6.2308789223
Cl      -0.8177419007    0.0481596712    7.0584147320
H        1.9290336054   -1.0508672355   -1.2359681787
H        1.0731298006    0.9317488233   -0.0049423413
H        2.6992052031   -3.0516126906    0.0219509993
H        3.6434976798   -1.9361664309    6.8630874571
H        0.9914720642    0.9189979383    2.4683155522
H        2.6051104752   -3.0769534656    2.4955155609
H        3.7160029664   -1.9487889120    4.3863909007
H        1.6391601831   -1.0522525637    8.0444766979
H       -0.2259869402   -0.2151761207    4.2755084261
22   

C        1.8856091836   -1.0595751046   -0.1460384265
C        1.5406094738    0.1011580162    0.5541209091
C        2.1699450244   -2.2371722907    0.5534018015
C        2.8303648971   -1.4267493289    6.2874853286
C        1.4770951358    0.0822081567    1.9524893762
C        2.1059250000   -2.2540091773    1.9519674982
C        2.8579240961   -1.4524009743    4.8886683277
C        1.6604416735   -1.0480191069    6.9551466470
C        0.5543650586   -0.7193773021    4.8311528409
C        1.7495135613   -1.0986058406    2.6620860418
C        1.7150827967   -1.1100584424    4.1483505031
C        0.5185942570   -0.6907299776    6.2301415771
Cl      -0.9352223292   -0.2112146396    7.0617294819
H        1.9355919109   -1.0456041353   -1.2311728309
H        1.3253127750    1.0185139349    0.0136622923
H        2.4411617857   -3.1388359333    0.0117471381
H        3.7173674720   -1.6963663204    6.8538456643
H        1.2199254256    0.9881142466    2.4936301158
H        2.3277821536   -3.1698874246    2.4917916959
H        3.7693707373   -1.7340211321    4.3693833954
H        1.6340813292   -1.0255568110    8.0405557901
H       -0.3318885950   -0.4409187434    4.2696070384
22   

C        1.8868584612   -1.0679274211   -0.1450536573
C        1.7114004340    0.1298704632    0.5563528467
C        2.0050287607   -2.2746296475    0.5532670356
C        2.8667305250   -1.2676079707    6.2912661464
C        1.6518194828    0.1191497109    1.9550143484
C        1.9450367842   -2.2828122571    1.9521299703
C        2.9005042663   -1.2904607791    4.8925173744
C        1.6558381660   -1.0417350287    6.9557740394
C        0.5214068000   -0.8600951145    4.8288796191
C        1.7601612421   -1.0886231026    2.6611787249
C        1.7249479228   -1.0963011851    4.1517417739
C        0.4787525472   -0.8353018167    6.2278145858
Cl      -1.0266956084   -0.5468192192    7.0557075705
H        1.9336422686   -1.0606715522   -1.2303957819
H        1.6236607388    1.0685347960    0.0167289903
H        2.1443318824   -3.2053221234    0.0107175606
H        3.7794913351   -1.4220102796    6.8598276285
H        1.5225092953    1.0494901573    2.5004484524
H        2.0393198328   -3.2191951616    2.4942939029
H        3.8393014866   -1.4573408729    4.3722403224
H        1.6241543075   -1.0222375182    8.0410977818
H       -0.3898104037   -0.6969806411    4.2618175400
22   

C        1.8770476304   -1.0790290975   -0.1465643517
C        1.9016238211    0.1358288151    0.5471119624
C        1.8125644471   -2.2849798719    0.5601396471
C        2.8893632148   -1.0907735649    6.3028693082
C        1.8618624204    0.1430628137    1.9465281020
C        1.7729044474   -2.2749138829    1.9597074130
C        2.9384748042   -1.0969406571    4.9043882578
C        1.6527462363   -1.0437506222    6.9567087080
C        0.5233633305   -1.0093516646    4.8197192289
C        1.7974820640   -1.0625048667    2.6608618016
C        1.7546367197   -1.0562277842    4.1535174278
C        0.4647954311   -1.0028532370    6.2182965113
Cl      -1.0740685035   -0.9443517469    7.0328368109
H        1.9075191921   -1.0859042232   -1.2324888086
H        1.9510866270    1.0734274836    0.0008188239
H        1.7928031509   -3.2292925312    0.0236256798
H        3.8095818344   -1.1224349047    6.8794395540
H        1.8802449077    1.0852815376    2.4865289550
H        1.7222295945   -3.2105621812    2.5090050040
H        3.8954001571   -1.1333551318    4.3916877987
H        1.6087908060   -1.0387553857    8.0417682467
H       -0.3963963236   -0.9776985609    4.2438936528
22   

C        1.8730490153   -1.0909204845   -0.1472291132
C        2.0888691672    0.1088193731    0.5392721440
C        1.6242138957   -2.2680861962    0.5667795976
C        2.8687712817   -0.9165686341    6.3128432194
C        2.0583118205    0.1291716269    1.9387864214
C        1.5942374689   -2.2449012610    1.9663989925
C        2.9311753123   -0.9102793640    4.9149019638
C        1.6320433306   -1.0465411752    6.9548328461
C        0.5293717117   -1.1658429544    4.8070949213
C        1.8187629009   -1.0492129978    2.6618444988
C        1.7598458739   -1.0256666352    4.1515139173
C        0.4575640459   -1.1734188624    6.2050132726
Cl      -1.0810095128   -1.3420751601    7.0046067172
H        1.8957030474   -1.1078732067   -1.2332344964
H        2.2773376205    1.0251461702   -0.0128044170
H        1.4526864159   -3.2001190999    0.0358678736
H        3.7792006663   -0.8234474393    6.8982349080
H        2.2185566817    1.0616516467    2.4721001753
H        1.3980829585   -3.1585035144    2.5201424200
H        3.8896241572   -0.8171908531    4.4123534818
H        1.5778632490   -1.0526440836    8.0394238502
H       -0.3804251356   -1.2668512715    4.2234975667
22   

C        1.8693917537   -1.0924884430   -0.1504255938
C        2.2486272253    0.0630460092    0.5404291976
C        1.4552373604   -2.2245208312    0.5591862648
C        2.8387936867   -0.7581374049    6.3065432441
C        2.2164639975    0.0840298570    1.9398600882
C        1.4236922768   -2.2012831883    1.9587303284
C        2.8980574286   -0.7532402354    4.9084903479
C        1.6299335358   -1.0399258167    6.9522655711
C        0.5484452027   -1.3134654583    4.8079710302
C        1.8127546079   -1.0512419071    2.6610595672
C        1.7496278639   -1.0200745335    4.1461833151
C        0.4805135734   -1.3207036787    6.2060298285
Cl      -1.0228577601   -1.6787177683    7.0102462891
H        1.8933297995   -1.1096891087   -1.2364000713
H        2.5645972176    0.9455734581   -0.0084443594
H        1.1570667350   -3.1219948753    0.0247541081
H        3.7310334334   -0.5472804781    6.8893627141
H        2.5011329225    0.9860668647    2.4734730401
H        1.1013829334   -3.0826136601    2.5055652599
H        3.8385014420   -0.5460186449    4.4061711868
H        1.5786007011   -1.0456875004    8.0369973707
H       -0.3444843361   -1.5315951188    4.2305418248
22   

C        1.8714792730   -1.0859140665   -0.1512548356
C        2.3880038731    0.0067097991    0.5515145888
C        1.3147767066   -2.1618117674    0.5467461152
C        2.8069737346   -0.6236032523    6.3006282522
C        2.3490331427    0.0215750458    1.9508241655
C        1.2761322880   -2.1451508380    1.9461457624
C        2.8568930247   -0.6267729449    4.9022175546
C        1.6425385904   -1.0328735774    6.9583097522
C        0.5855652529   -1.4481445296    4.8249233325
C        1.7967097633   -1.0559966020    2.6642813309
C        1.7438329276   -1.0338390520    4.1472658351
C        0.5277214538   -1.4476953415    6.2233752919
Cl      -0.9228421555   -1.9585054756    7.0420188548
H        1.9012466836   -1.0982925344   -1.2371522515
H        2.8166221943    0.8462450169    0.0116819355
H        0.9132604406   -3.0123357779    0.0032502800
H        3.6731819359   -0.3070601088    6.8748337093
H        2.7412228731    0.8809541504    2.4861593791
H        0.8491648827   -2.9910041755    2.4765627567
H        3.7688376190   -0.3207586799    4.3983248870
H        1.5988192535   -1.0323021449    8.0433903892
H       -0.2880400562   -1.7632503822    4.2634498819
22   

C        1.9240226054   -1.0574333019   -0.1569310344
C        1.4077318828   -2.1643847146    0.5207305496
C        2.3712715934    0.0507876035    0.5661470247
C        0.6237509073   -1.7473959838    6.2200375120
C        1.3402876313   -2.1631384872    1.9190909397
C        2.3038998137    0.0506164224    1.9644161946
C        0.6905682263   -1.7505492517    4.8223177582
C        1.5760803297   -1.0456507053    6.9636238409
C        2.6567450802   -0.3549048681    4.9160471255
C        1.7917720734   -1.0585517889    2.6638525530
C        1.7058053476   -1.0507126246    4.1459949538
C        2.5968416611   -0.3472857812    6.3143285048
Cl       3.7912913823    0.5208812897    7.2390713317
H        1.9761745938   -1.0577271587   -1.2420563896
H        1.0610863136   -3.0289417770   -0.0381405406
H        2.7671263981    0.9163590723    0.0425989720
H       -0.1706365575   -2.2877293229    6.7272240617
H        0.9504672343   -3.0433280561    2.4196601321
H        2.6374353540    0.9341368163    2.4989604936
H       -0.0706771867   -2.2883838990    4.2666365984
H        1.5284378877   -1.0406430065    8.0485335586
H        3.4721110388    0.1759596681    4.4369662516
22   

C        1.9156457474   -1.0542987202   -0.1662575465
C        1.2709787785   -2.0915274459    0.5077698246
C        2.4950797389   -0.0158053095    0.5625104896
C        0.7185244601   -1.8558913446    6.2391497487
C        1.2098223391   -2.0926732371    1.9065387034
C        2.4336029627   -0.0179142339    1.9609020578
C        0.7809404749   -1.8549160517    4.8411146162
C        1.5880797113   -1.0544036377    6.9797542558
C        2.5811414467   -0.2583029201    4.9273793773
C        1.8001875817   -1.0645926496    2.6658985752
C        1.7043515320   -1.0469758786    4.1511526046
C        2.5246972098   -0.2539986320    6.3257403238
Cl       3.6247264945    0.7363870627    7.2451337928
H        1.9627845304   -1.0532328611   -1.2516169281
H        0.8175689266   -2.9025499958   -0.0549556071
H        2.9887287810    0.8006268304    0.0430810578
H       -0.0102991291   -2.4793372036    6.7494622073
H        0.7135390745   -2.9328577421    2.3769508340
H        2.8717607797    0.8285100045    2.4764714579
H        0.0704106976   -2.4803818681    4.3141090442
H        1.5429124956   -1.0524918675    8.0647838929
H        3.3463408798    0.3552194560    4.4682299477
22   

C        1.9066897253   -1.0512420625   -0.1814875718
C        1.1046496639   -1.9741638276    0.4866264891
C        2.6490889646   -0.1307510149    0.5549118218
C        0.8516739268   -1.9949098149    6.2463883530
C        1.0447041234   -1.9772421068    1.8855660477
C        2.5889504694   -0.1340583987    1.9532761467
C        0.9131400034   -1.9899804494    4.8482249835
C        1.5934333392   -1.0745799549    6.9849147148
C        2.4552891210   -0.1477294810    4.9289771527
C        1.7831880809   -1.0595884639    2.6581512216
C        1.7155819753   -1.0676806849    4.1487511403
C        2.3985610273   -0.1469638229    6.3273484783
Cl       3.3294168725    1.0075403813    7.2424803464
H        1.9528253237   -1.0493393346   -1.2668931104
H        0.5232280115   -2.6946606327   -0.0815954966
H        3.2768696674    0.5920529899    0.0415464053
H        0.2237883209   -2.7183099171    6.7590148376
H        0.3992692570   -2.7247019254    2.3263737763
H        3.1928555052    0.6098623469    2.4556234684
H        0.3093224557   -2.7342625172    4.3468612858
H        1.5479747131   -1.0756904228    8.0699381809
H        3.0998821991    0.5991728463    4.4867138178
22   

C        1.9088793040   -1.0314816100   -0.1735918924
C        0.9646759375   -1.8224461469    0.4811012722
C        2.7932592631   -0.2547445747    0.5746717786
C        0.9965258086   -2.1238574574    6.2350906228
C        0.9020282450   -1.8333067174    1.8797617453
C        2.7297171606   -0.2660467918    1.9729324914
C        1.0591569178   -2.1112358131    4.8371189776
C        1.5965062896   -1.1024141117    6.9724765632
C        2.3147987527   -0.0581863487    4.9167787521
C        1.7727584943   -1.0465709340    2.6575503920
C        1.7304121220   -1.0857127287    4.1448657394
C        2.2562164322   -0.0640212959    6.3150453342
Cl       2.9928645716    1.2234314563    7.2293846720
H        1.9577437633   -1.0234061601   -1.2588461451
H        0.2738184648   -2.4296635462   -0.0968289027
H        3.5382707144    0.3546433065    0.0710250969
H        0.4825449742   -2.9319184923    6.7480713650
H        0.1365873096   -2.4511890959    2.3334194994
H        3.4604036611    0.3305967230    2.5061845034
H        0.5938165350   -2.9380282748    4.3139984169
H        1.5498657657   -1.1085169093    8.0574287546
H        2.8100494404    0.7856814875    4.4526754326
22   

C        1.9067284886   -1.0300487037   -0.1593751751
C        0.8725303469   -1.7061621428    0.4920845349
C        2.8818019875   -0.3680559880    0.5902978440
C        1.1245253656   -2.1862755121    6.2345777233
C        0.8132419300   -1.7187954840    1.8907538739
C        2.8210974035   -0.3808830913    1.9888167604
C        1.1819078091   -2.1745217916    4.8364758645
C        1.6113078546   -1.0979221974    6.9631948608
C        2.2089681871    0.0081466257    4.8999776420
C        1.7828766061   -1.0524508686    2.6617666373
C        1.7291517812   -1.0788016672    4.1451978944
C        2.1547334671    0.0039514875    6.2984914069
Cl       2.7538851577    1.3665752833    7.2039532280
H        1.9534374344   -1.0203015477   -1.2447047031
H        0.1111686032   -2.2201821028   -0.0876329597
H        3.6915252774    0.1531475647    0.0875936231
H        0.7046359446   -3.0431319149    6.7539396683
H       -0.0107249003   -2.2375029819    2.3695900492
H        3.6046475285    0.1226393365    2.5456876998
H        0.8135456469   -3.0389465188    4.2936856661
H        1.5685490473   -1.1024614209    8.0483085812
H        2.6144650265    0.8850556883    4.4072689962
22   

C        1.9148018514   -1.0233015100   -0.1566817093
C        0.8042095993   -1.5818440283    0.4829401423
C        2.9589044642   -0.4877261522    0.6033757054
C        1.2366775427   -2.2518686472    6.2268470947
C        0.7396445688   -1.6059214805    1.8811715718
C        2.8925489569   -0.5121548549    2.0016231937
C        1.2895635568   -2.2390873059    4.8286056275
C        1.6090445456   -1.1140095224    6.9497171177
C        2.0866993396    0.0414980696    4.8814648104
C        1.7849248260   -1.0753860717    2.6565474456
C        1.7099504169   -1.0893605757    4.1386937575
C        2.0364535947    0.0366807172    6.2802087543
Cl       2.5013244372    1.4541922717    7.1800922372
H        1.9657412223   -1.0041269365   -1.2416932007
H       -0.0107538720   -1.9942058352   -0.1050611190
H        3.8232965620   -0.0536623976    0.1089988805
H        0.9102285473   -3.1460509642    6.7503914233
H       -0.1334152691   -2.0303931883    2.3675039834
H        3.7141842223   -0.1009563135    2.5803651025
H        1.0120425718   -3.1305850633    4.2741609979
H        1.5698488492   -1.1189204149    8.0349602161
H        2.4111755615    0.9424949221    4.3709266652
22   

C        1.9206627126   -1.0214395698   -0.1551122038
C        0.7461633918   -1.4430510416    0.4766871445
C        3.0222283290   -0.6281289969    0.6119890540
C        1.3713720474   -2.2834181064    6.2362282541
C        0.6758037405   -1.4740365758    1.8745322644
C        2.9496433176   -0.6597525103    2.0098396400
C        1.4162901045   -2.2798422720    4.8376390444
C        1.6161278976   -1.1020057635    6.9447883960
C        1.9521532541    0.0774598888    4.8619056668
C        1.7803512185   -1.0916433592    2.6528279085
C        1.6962753894   -1.0956750306    4.1372228300
C        1.9094738635    0.0825679400    6.2609738181
Cl       2.2213894451    1.5518275633    7.1436110077
H        1.9761591240   -0.9963646261   -1.2397781155
H       -0.1128346016   -1.7429659186   -0.1167161897
H        3.9343028738   -0.2971447806    0.1235709497
H        1.1506308578   -3.2030370009    6.7708368423
H       -0.2409652122   -1.7915312563    2.3625715808
H        3.8074351378   -0.3534146193    2.6014525770
H        1.2378713666   -3.1988158421    4.2868627761
H        1.5831754798   -1.0994136935    8.0302459248
H        2.1799684213    0.9975994374    4.3329713566
22   

C        1.9192489010   -1.0249486781   -0.1524259454
C        0.6987377807   -1.2834511126    0.4806392236
C        3.0676522469   -0.7966517386    0.6134058227
C        1.5297353585   -2.3117810839    6.2465354348
C        0.6289114095   -1.3160455670    1.8785134933
C        2.9950007382   -0.8298584972    2.0112568559
C        1.5732877159   -2.3113380562    4.8478669039
C        1.6226738925   -1.1039199152    6.9472273846
C        1.8045161063    0.0953264495    4.8563788605
C        1.7783251658   -1.0974185842    2.6530004908
C        1.7017855179   -1.1057792903    4.1420287539
C        1.7621402096    0.1042933007    6.2554915127
Cl       1.8846843414    1.6069844097    7.1283626753
H        1.9745787407   -0.9985882110   -1.2370697044
H       -0.1953886998   -1.4561048474   -0.1115531767
H        4.0156913625   -0.5920791005    0.1241755399
H        1.4267056979   -3.2484963239    6.7870782154
H       -0.3197887738   -1.5094617777    2.3706305978
H        3.8862560215   -0.6496305778    2.6053607576
H        1.5090688361   -3.2471147918    4.3001056143
H        1.5900381781   -1.0984921546    8.0326839281
H        1.9153692028    1.0314085517    4.3178802351
22   

C        1.9066783336   -1.0356909104   -0.1520775533
C        0.6687636548   -1.1029635951    0.4965345623
C        3.0863557760   -0.9889247558    0.5989535598
C        1.7064707189   -2.3235023831    6.2452077039
C        0.6122555796   -1.1235409782    1.8952476467
C        3.0269455942   -1.0096380398    1.9976995090
C        1.7616368403   -2.3127821488    4.8469766542
C        1.6219412347   -1.1165076180    6.9487184216
C        1.6479341141    0.1025515425    4.8614924527
C        1.7912002247   -1.0771869095    2.6538733323
C        1.7327031871   -1.0985959668    4.1458371986
C        1.5923063409    0.1013520267    6.2602018689
Cl       1.4870807668    1.6033678351    7.1364862851
H        1.9518029688   -1.0193158560   -1.2373898062
H       -0.2485465346   -1.1387931701   -0.0841815322
H        4.0485167254   -0.9360984702    0.0975348044
H        1.7292481669   -3.2671150907    6.7830871541
H       -0.3479404898   -1.1751178043    2.4002994357
H        3.9421799996   -0.9727442308    2.5814124622
H        1.8273113314   -3.2465225921    4.2958792879
H        1.5788645586   -1.1189558450    8.0338219024
H        1.6251472940    1.0456660978    4.3243209310
22   

C        1.8952348959   -1.0344499152   -0.1523766098
C        0.6718809874   -0.9045961727    0.5139934622
C        3.0785112275   -1.1722219490    0.5815543477
C        1.8839037772   -2.3111933417    6.2347644260
C        0.6335979653   -0.9101546355    1.9134280494
C        3.0377469566   -1.1774209964    1.9811245247
C        1.9557371563   -2.2794311863    4.8376350007
C        1.6203209866   -1.1350759307    6.9461784452
C        1.4988203224    0.0953942986    4.8689438482
C        1.8176335017   -1.0384836922    2.6556548496
C        1.7730643706   -1.0726723899    4.1455982304
C        1.4249469091    0.0724457567    6.2666171723
Cl       1.0895521795    1.5344814191    7.1525978233
H        1.9259901456   -1.0306733372   -1.2383086356
H       -0.2486056444   -0.8017716679   -0.0535576784
H        4.0289862618   -1.2761912347    0.0660528593
H        2.0295996084   -3.2478022281    6.7655874558
H       -0.3165068196   -0.8162882671    2.4313509367
H        3.9559495280   -1.2869239278    2.5508223348
H        2.1520459496   -3.1911141535    4.2807020037
H        1.5627556565   -1.1542756269    8.0304430898
H        1.3443964147    1.0303088185    4.3392565217
22   

C        1.8883771178   -1.0377173848   -0.1529707275
C        0.6997866542   -0.7362276774    0.5200115315
C        3.0439080934   -1.3411826652    0.5746704842
C        2.0399525104   -2.2666776469    6.2409710156
C        0.6688184309   -0.7352966724    1.9196055650
C        3.0108193822   -1.3397726335    1.9744119192
C        2.1151954163   -2.2309898005    4.8441296267
C        1.6241937714   -1.1319001812    6.9462050483
C        1.3575995827    0.0652586674    4.8632906591
C        1.8270618177   -1.0272932529    2.6580241702
C        1.7857186150   -1.0595287318    4.1437948490
C        1.2792653411    0.0377311660    6.2605667681
Cl       0.7536854152    1.4476909883    7.1385363090
H        1.9131449165   -1.0391452432   -1.2390623741
H       -0.2004625123   -0.5062199282   -0.0426950082
H        3.9671666718   -1.5787002013    0.0539755491
H        2.2998628906   -3.1754841621    6.7764607974
H       -0.2585064479   -0.5118548180    2.4390071134
H        3.9096831083   -1.5763369521    2.5361459352
H        2.4256381003   -3.1152302983    4.2950884216
H        1.5631907890   -1.1546505106    8.0302130023
H        1.0886952495    0.9730052975    4.3322492865
22   

C        1.8896511528   -1.0423590703   -0.1568811307
C        0.7456778676   -0.6023003143    0.5155981299
C        2.9934502279   -1.4960843678    0.5714600820
C        2.1733427601   -2.2324636195    6.2549063684
C        0.7071759389   -0.6144591702    1.9149359956
C        2.9530949702   -1.5080221444    1.9708811262
C        2.2346862575   -2.2058628176    4.8571913082
C        1.6387030995   -1.1435465720    6.9508946215
C        1.2273510613   -0.0092899563    4.8568202865
C        1.8123664720   -1.0628142956    2.6584295290
C        1.7677294487   -1.0902956136    4.1416390383
C        1.1625861853   -0.0282525699    6.2548445702
Cl       0.4950893259    1.3279297544    7.1211245373
H        1.9201916763   -1.0329491123   -1.2427869673
H       -0.1153109733   -0.2537834316   -0.0476385205
H        3.8837754956   -1.8378571744    0.0514067533
H        2.5370626638   -3.0998288750    6.7986136407
H       -0.1919244204   -0.2829314265    2.4256454821
H        3.8195319116   -1.8545439292    2.5259679185
H        2.6378725153   -3.0610554548    4.3231133271
H        1.5887079212   -1.1595035304    8.0355881105
H        0.8631065571    0.8642342833    4.3257496095
22   

C        1.8911895553   -1.0397775112   -0.1596800580
C        0.8004814882   -0.4813591809    0.5107393124
C        2.9272308409   -1.6258837570    0.5711021188
C        2.2884855464   -2.1603328726    6.2804747357
C        0.7459671063   -0.5101844849    1.9093087604
C        2.8710908421   -1.6545987575    1.9696329893
C        2.3269167383   -2.1565655716    4.8817038118
C        1.6532000688   -1.1209371913    6.9648802805
C        1.0986389121   -0.0795030799    4.8563783846
C        1.7773603220   -1.1009347000    2.6615884441
C        1.7289932977   -1.1180829508    4.1453811169
C        1.0564505395   -0.0760698329    6.2553313000
Cl       0.2718892946    1.2261976708    7.1063035309
H        1.9342160662   -1.0167685742   -1.2449622865
H       -0.0083694263   -0.0265125477   -0.0539701622
H        3.7804714682   -2.0549953220    0.0536081609
H        2.7496660618   -2.9731095463    6.8345092400
H       -0.1216730594   -0.0839245931    2.4023370241
H        3.7005321210   -2.0960125879    2.5122699811
H        2.8109271094   -2.9834459843    4.3721752110
H        1.6213053388   -1.1193379527    8.0503764381
H        0.6480313254    0.7548910617    4.3302412670
22   

C        1.8980521316   -1.0331322014   -0.1731796938
C        0.8839373572   -0.3551811753    0.5031448483
C        2.8495382935   -1.7490242300    0.5530041628
C        2.4093030467   -2.0737044155    6.2947489154
C        0.8195491796   -0.3959394278    1.9010808049
C        2.7840338874   -1.7892797327    1.9507148982
C        2.4309130914   -2.0844159633    4.8956159343
C        1.6731221825   -1.1039912534    6.9762151935
C        0.9868926251   -0.1583874278    4.8624002814
C        1.7593974203   -1.1220681199    2.6572113154
C        1.7116182910   -1.1353078037    4.1449256150
C        0.9605252423   -0.1411364176    6.2616280137
Cl       0.0522239728    1.0823476427    7.1068200385
H        1.9483902330   -1.0008432783   -1.2579146173
H        0.1398791867    0.2038806624   -0.0571118986
H        3.6478512598   -2.2703498912    0.0325130092
H        2.9640300480   -2.8234060550    6.8519825894
H       -0.0010169714    0.1319942344    2.3722055655
H        3.5657068547   -2.3344504011    2.4659446614
H        3.0013191277   -2.8699848793    4.4143487982
H        1.6540052441   -1.0917490983    8.0619490122
H        0.4427110850    0.6293884087    4.3567424343
22   

C        1.8784171888   -1.0458569685   -0.1862066305
C        1.0060271853   -0.2077082525    0.5047600912
C        2.7142781430   -1.9009918014    0.5282931394
C        2.5507678302   -1.9574362189    6.3014593354
C        0.9693463852   -0.2243208145    1.9043124404
C        2.6769274389   -1.9169263789    1.9274394267
C        2.5905390630   -1.9439128906    4.9026564373
C        1.6757431019   -1.1164500830    6.9865284107
C        0.8840314158   -0.2522162863    4.8756588408
C        1.8012636599   -1.0769674580    2.6562394865
C        1.7601218999   -1.0926428854    4.1478339143
C        0.8386673910   -0.2601985326    6.2744908966
Cl      -0.2587672281    0.7949710756    7.1225291476
H        1.9065146353   -1.0326063490   -1.2721484276
H        0.3512007865    0.4618654250   -0.0456729965
H        3.3973493927   -2.5576184883   -0.0030176292
H        3.2037849864   -2.6253843463    6.8561989523
H        0.2653820443    0.4556820493    2.3649123770
H        3.3550120835   -2.6070209000    2.4112649968
H        3.2944073271   -2.6238054785    4.4415912702
H        1.6420115666   -1.1241000594    8.0719522426
H        0.2064463736    0.4373913924    4.3918091151
