6    

H       -0.5570404797   -0.0580995962   -0.7798722273
C        0.0265029860    0.3285873984    0.0622781325
H       -0.6639406956    0.6915409084    0.8310348546
O        0.8555078794   -0.6603517933    0.5691650396
H        0.3693021461   -1.4836636018    0.6803959269
Br       1.1592517316    1.7752291708   -0.5751771856
6    

H       -0.5456192874   -0.0855763565   -0.7562637757
C        0.0176082184    0.3321279475    0.0848353986
H       -0.6937877631    0.7255601337    0.8187289645
O        0.8212930762   -0.6421295313    0.6507257606
H        0.4136791201   -1.5103746114    0.5776206288
Br       1.1692762218    1.7554532357   -0.6005047357
6    

H       -0.5573337504   -0.1090985818   -0.7279561615
C        0.0036071176    0.3309986617    0.1031364600
H       -0.7127210745    0.7652529655    0.8086801986
O        0.7673518483   -0.6344633477    0.7259371857
H        0.4809435434   -1.5203888993    0.4858333382
Br       1.1874069145    1.7302239960   -0.6185556166
6    

H       -0.5975678165   -0.1227917280   -0.6930358488
C       -0.0146775220    0.3262446868    0.1179130864
H       -0.7138929395    0.8107181001    0.8077649425
O        0.6999654124   -0.6364032540    0.7873022328
H        0.5667271380   -1.5107512156    0.4089969529
Br       1.2109382935    1.6979839820   -0.6321376192
6    

H       -0.2810006814   -0.1126812425   -0.9310518692
C       -0.0530071288    0.2861443257    0.0629546713
H       -0.9937469958    0.6287860412    0.5069513276
O        0.4857215433   -0.6808208071    0.8633354941
H        0.8221980589   -1.4253921497    0.3532507893
Br       1.1653807057    1.8663605049   -0.0828260891
6    

H       -0.3283583143   -0.1088057437   -0.9301118271
C       -0.0763876410    0.2780286010    0.0628936958
H       -0.9994080105    0.6611444520    0.5109950587
O        0.4121291871   -0.7123613411    0.8589669340
H        0.9225111436   -1.3576735426    0.3551123988
Br       1.2029454636    1.8166571064   -0.0823396725
6    

H       -0.3619415709   -0.0940113109   -0.9371815336
C       -0.0986849618    0.2718421465    0.0608859272
H       -1.0088808543    0.6814325201    0.5118007007
O        0.3506340732   -0.7494748583    0.8376581207
H        1.0134383043   -1.2794657849    0.3760674444
Br       1.2388743898    1.7587359899   -0.0823010727
6    

H       -0.3870962427   -0.0683467390   -0.9505314696
C       -0.1171924212    0.2683668356    0.0560238990
H       -1.0171836358    0.6935117934    0.5129830750
O        0.3026500753   -0.7917456530    0.8006290524
H        1.0910032222   -1.1983819384    0.4167365848
Br       1.2697432603    1.6981847423   -0.0830490317
6    

H       -0.4123715016   -0.0343245135   -0.9670312827
C       -0.1305534697    0.2654958399    0.0479206866
H       -1.0192035782    0.6973130835    0.5205424811
O        0.2692791499   -0.8379763960    0.7479846288
H        1.1516847444   -1.1232876677    0.4770211886
Br       1.2926675790    1.6441641515   -0.0870705316
6    

H       -0.4446549336    0.0060669517   -0.9844100291
C       -0.1379202271    0.2621609083    0.0353002704
H       -1.0098596222    0.6934277667    0.5385449420
O        0.2513387554   -0.8849762839    0.6811041859
H        1.1919756744   -1.0600821392    0.5556259292
Br       1.3067299337    1.6027725353   -0.0941469222
6    

H       -0.4925802050    0.0519380619   -0.9968253270
C       -0.1394461515    0.2585205691    0.0191075890
H       -0.9824910485    0.6836562912    0.5741302005
O        0.2490553683   -0.9282219899    0.6033881813
H        1.2083814522   -1.0099822520    0.6461968028
Br       1.3139865548    1.5763468926   -0.1037999700
6    

H       -0.5562397174    0.0975413956   -0.9986027680
C       -0.1369423178    0.2528388716    0.0011881002
H       -0.9366292708    0.6647875266    0.6259348728
O        0.2623554178   -0.9632881261    0.5193244349
H        1.1995706802   -0.9710181467    0.7414743083
Br       1.3173629474    1.5651724938   -0.1165163957
6    

H       -0.6161126363    0.1361743785   -0.9916097407
C       -0.1313884678    0.2461613851   -0.0156689050
H       -0.8846375002    0.6360606929    0.6772193326
O        0.2892211148   -0.9870997005    0.4346908973
H        1.1649078092   -0.9434950191    0.8348089703
Br       1.3201677998    1.5664709752   -0.1340668405
6    

H       -0.6538653036    0.1611333339   -0.9833216619
C       -0.1230715823    0.2396502919   -0.0285349156
H       -0.8425159814    0.5990920433    0.7148900942
O        0.3282462997   -0.9985999640    0.3556470561
H        1.1071360904   -0.9316587934    0.9213806572
Br       1.3210540778    1.5806252183   -0.1596583155
6    

H       -0.6699309062    0.1728475680   -0.9759350141
C       -0.1113872168    0.2352533965   -0.0358973131
H       -0.8120104485    0.5606379737    0.7404358577
O        0.3774350281   -0.9984456838    0.2882830578
H        1.0308205092   -0.9410299855    0.9976488602
Br       1.3169336847    1.6075746076   -0.1952333407
6    

H       -0.6710706888    0.1749985492   -0.9677809237
C       -0.0951204216    0.2348364147   -0.0381330478
H       -0.7867507154    0.5277605477    0.7588746693
O        0.4350534840   -0.9885876171    0.2371669014
H        0.9413891649   -0.9733144171    1.0604121375
Br       1.3051297936    1.6446851914   -0.2392665551
6    

H       -0.6654357529    0.1676873279   -0.9569657205
C       -0.0759810870    0.2376205688   -0.0365323941
H       -0.7624351997    0.5033273885    0.7743141314
O        0.4992795391   -0.9702849559    0.2051087478
H        0.8434556474   -1.0239495674    1.1061796402
Br       1.2858670524    1.6876943998   -0.2876829556
6    

H       -0.6599712677    0.1534056052   -0.9405897575
C       -0.0541035143    0.2444418254   -0.0327484379
H       -0.7312104761    0.4920882202    0.7915011752
O        0.5686652282   -0.9449394665    0.1926044476
H        0.7418319019   -1.0861820341    1.1311410242
Br       1.2612784149    1.7286160395   -0.3363304650
6    

H       -0.6609224572    0.1309477004   -0.9162958766
C       -0.0317514077    0.2540993244   -0.0283176442
H       -0.6891690414    0.4961794264    0.8132827214
O        0.6415120808   -0.9122691955    0.2000685532
H        0.6407428297   -1.1527422561    1.1327858300
Br       1.2338911660    1.7630614695   -0.3804350573
6    

H       -0.6670408734    0.1024603466   -0.8845127991
C       -0.0106182736    0.2672342124   -0.0234255766
H       -0.6395490633    0.5190952971    0.8368331095
O        0.7145065452   -0.8715399421    0.2273489730
H        0.5460383080   -1.2178260418    1.1088566386
Br       1.2066279175    1.7868277891   -0.4178072392
6    

H       -0.6662135154    0.0693651496   -0.8531556976
C        0.0070418498    0.2813309860   -0.0157236117
H       -0.6013284396    0.5539516106    0.8529643219
O        0.7794815098   -0.8248474683    0.2724918507
H        0.4640668712   -1.2806980957    1.0581460728
Br       1.1837256052    1.7998394336   -0.4510328176
6    

H       -0.6481845069    0.0352981219   -0.8305816760
C        0.0202152108    0.2955345926   -0.0029394281
H       -0.5898409192    0.5912196433    0.8570325388
O        0.8292244082   -0.7759765323    0.3327646787
H        0.4010101576   -1.3405730816    0.9833066522
Br       1.1676640157    1.8038219900   -0.4828482425
6    

H       -0.6175122617    0.0022367945   -0.8142850141
C        0.0279370110    0.3091127819    0.0155685208
H       -0.6028977770    0.6264130500    0.8526078825
O        0.8598532687   -0.7292997456    0.4051711012
H        0.3628959842   -1.3956224897    0.8906087906
Br       1.1580037709    1.8004475411   -0.5146712852
6    

H       -0.5841999550   -0.0288823703   -0.7983689202
C        0.0300331009    0.3205165246    0.0382941858
H       -0.6305177121    0.6592765454    0.8434533553
O        0.8687437554   -0.6898228926    0.4854328259
H        0.3520975846   -1.4443088187    0.7870949006
Br       1.1552147913    1.7905936092   -0.5461351047
