22   

C        1.8654165022   -1.0660873903   -0.1744318875
C        1.1522276410   -0.0843869946    0.5133809871
C        2.5628549261   -2.0384026449    0.5420544244
C        2.6657756350   -1.8148235484    6.3045494075
C        1.1394482465   -0.0730449816    1.9132880421
C        2.5495697799   -2.0259408251    1.9417598121
C        2.7295918291   -1.7829406733    4.9070282501
C        1.6636550255   -1.1135364480    6.9758558916
C        0.7918047459   -0.3553009642    4.8549482819
C        1.8458659547   -1.0347861920    2.6605102600
C        1.8023724922   -1.0437055815    4.1483916348
C        0.7214035513   -0.3824897097    6.2524946711
Cl      -0.5422089703    0.4823611744    7.0841137934
H        1.8746754833   -1.0752692192   -1.2607358600
H        0.6073076795    0.6756757311   -0.0392737430
H        3.1114797263   -2.8117594932    0.0120307346
H        3.3994023883   -2.3839478332    6.8686179634
H        0.5858645605    0.7243754551    2.3946060748
H        3.0826912472   -2.8219896081    2.4474999580
H        3.5384774991   -2.3277995962    4.4348711654
H        1.6101834280   -1.1359651144    8.0602778644
H        0.0182903056    0.2009933544    4.3405300263
22   

C        1.8817522822   -1.0657767093   -0.1571827384
C        1.2826721836   -0.0051041132    0.5261875640
C        2.4482376502   -2.1209260829    0.5616139879
C        2.7324625441   -1.6791319550    6.3070251603
C        1.2513589074    0.0003645067    1.9257567691
C        2.4167742948   -2.1137917692    1.9611914732
C        2.7884021354   -1.6678720082    4.9088814893
C        1.6576277531   -1.0792119743    6.9682458269
C        0.6999759255   -0.4606610909    4.8379388357
C        1.8215456537   -1.0507702391    2.6664203553
C        1.7750222552   -1.0547873246    4.1503950299
C        0.6368222917   -0.4682760306    6.2360808576
Cl      -0.7093887784    0.2722280283    7.0576378509
H        1.9054220670   -1.0707699509   -1.2432910429
H        0.8428523577    0.8184838681   -0.0290445768
H        2.9088470398   -2.9510306992    0.0336697816
H        3.5263902666   -2.1513809879    6.8787829770
H        0.7943937968    0.8456766022    2.4299465071
H        2.8442760347   -2.9573830020    2.4930432068
H        3.6417568384   -2.1249652125    4.4185081341
H        1.6096840865   -1.0859491810    8.0531314950
H       -0.1165359358   -0.0001396827    4.2926730862
22   

C        1.8897223668   -1.0596623973   -0.1503389645
C        1.4065302825    0.0545595433    0.5422181560
C        2.3238542220   -2.1843890624    0.5576544157
C        2.7969499246   -1.5620474586    6.2942062320
C        1.3560480750    0.0424516740    1.9411845361
C        2.2730983595   -2.1946850980    1.9567399133
C        2.8332146591   -1.5736498270    4.8954165028
C        1.6720165728   -1.0636536726    6.9590704429
C        0.6272970879   -0.5893241401    4.8319910540
C        1.7841173881   -1.0842979898    2.6639067469
C        1.7452959146   -1.0927938592    4.1473274417
C        0.5833065755   -0.5743057805    6.2308789142
Cl      -0.8177396508    0.0481643053    7.0584148020
H        1.9289622163   -1.0508995331   -1.2359699704
H        1.0731150280    0.9317408445   -0.0049438361
H        2.6991008128   -3.0516576994    0.0219493486
H        3.6434981400   -1.9361661014    6.8630873292
H        0.9914938406    0.9190065864    2.4683162977
H        2.6050403916   -3.0769815720    2.4955169770
H        3.7160014042   -1.9487905459    4.3863892619
H        1.6391616648   -1.0522497555    8.0444766797
H       -0.2259855569   -0.2151733543    4.2755081757
22   

C        1.8855172172   -1.0596022234   -0.1460417429
C        1.5405722162    0.1011465042    0.5541190694
C        2.1698243436   -2.2372069665    0.5533978679
C        2.8303650806   -1.4267490367    6.2874853118
C        1.4770951358    0.0822081567    1.9524893762
C        2.1058392071   -2.2540336722    1.9519653077
C        2.8579240961   -1.4524009743    4.8886683277
C        1.6604418937   -1.0480185475    6.9551465906
C        0.5543651039   -0.7193771432    4.8311527513
C        1.7495135613   -1.0986058406    2.6620860418
C        1.7150827967   -1.1100584424    4.1483505031
C        0.5185944096   -0.6907295398    6.2301414990
Cl      -0.9352220996   -0.2112139741    7.0617294055
H        1.9354744696   -1.0456390367   -1.2311774210
H        1.3252879072    1.0185050497    0.0136599732
H        2.4409908672   -3.1388845458    0.0117412568
H        3.7173676375   -1.6963661799    6.8538456052
H        1.2199609485    0.9881235383    2.4936314767
H        2.3276679745   -3.1699186272    2.4917898227
H        3.7693699110   -1.7340220898    4.3693824164
H        1.6340815973   -1.0255560519    8.0405557317
H       -0.3318884016   -0.4409184862    4.2696067301
22   

C        1.8867745672   -1.0679387523   -0.1450567304
C        1.7113663286    0.1298656087    0.5563513645
C        2.0049188633   -2.2746441260    0.5532631529
C        2.8667302838   -1.2676090046    6.2912661601
C        1.6518194828    0.1191497109    1.9550143484
C        1.9449587611   -2.2828225857    1.9521274950
C        2.9005042663   -1.2904607791    4.8925173744
C        1.6558376036   -1.0417375789    6.9557740177
C        0.5214062976   -0.8600976202    4.8288795669
C        1.7601612421   -1.0886231026    2.6611787249
C        1.7249479228   -1.0963011851    4.1517417739
C        0.4787518334   -0.8353052476    6.2278145339
Cl      -1.0266967591   -0.5468248570    7.0557074807
H        1.9335350485   -1.0606861324   -1.2303998815
H        1.6236377076    1.0685309487    0.0167274571
H        2.1441762684   -3.2053423792    0.0107118551
H        3.7794911148   -1.4220110817    6.8598276698
H        1.5225415612    1.0494939652    2.5004496126
H        2.0392160399   -3.2192084080    2.4942908728
H        3.8393014783   -1.4573402759    4.3722401180
H        1.6241535700   -1.0222407712    8.0410977683
H       -0.3898109451   -0.6969838561    4.2618173248
22   

C        1.8770478797   -1.0790290889   -0.1465643491
C        1.9016239171    0.1358288249    0.5471119666
C        1.8125647765   -2.2849798685    0.5601396471
C        2.8893632292   -1.0907735283    6.3028693054
C        1.8618624204    0.1430628137    1.9465281020
C        1.7729046747   -2.2749138875    1.9597074121
C        2.9384748042   -1.0969406571    4.9043882578
C        1.6527462602   -1.0437504736    6.9567087135
C        0.5233633374   -1.0093515595    4.8197192383
C        1.7974820640   -1.0625048667    2.6608618016
C        1.7546367197   -1.0562277842    4.1535174278
C        0.4647954509   -1.0028530301    6.2182965236
Cl      -1.0740684689   -0.9443513222    7.0328368393
H        1.9075195136   -1.0859042094   -1.2324888028
H        1.9510866862    1.0734274972    0.0008188331
H        1.7928036231   -3.2292925263    0.0236256745
H        3.8095818583   -1.1224349073    6.8794395356
H        1.8802448221    1.0852815386    2.4865289562
H        1.7222298951   -3.2105621942    2.5090049947
H        3.8954001503   -1.1333551816    4.3916877892
H        1.6087908501   -1.0387551869    8.0417682522
H       -0.3963963188   -0.9776984212    4.2438936691
22   

C        1.8731310114   -1.0909375589   -0.1472264951
C        2.0889024789    0.1088121861    0.5392729858
C        1.6243213448   -2.2681082118    0.5667831611
C        2.8687709346   -0.9165680041    6.3128432029
C        2.0583118205    0.1291716269    1.9387864214
C        1.5943137276   -2.2449169203    1.9664018038
C        2.9311753123   -0.9102793640    4.9149019638
C        1.6320427175   -1.0465397140    6.9548325552
C        0.5293714932   -1.1658417543    4.8070943841
C        1.8187629009   -1.0492129978    2.6618444988
C        1.7598458739   -1.0256666352    4.1515139173
C        0.4575635024   -1.1734170837    6.2050127414
Cl      -1.0810103060   -1.3420723993    7.0046059129
H        1.8958078108   -1.1078951246   -1.2332313274
H        2.2773600581    1.0251407489   -0.0128043591
H        1.4528385682   -3.2001500539    0.0358726889
H        3.7792002072   -0.8234468871    6.8982350771
H        2.2185250673    1.0616576854    2.4720991293
H        1.3981843563   -3.1585238253    2.5201464531
H        3.8896242002   -0.8171912549    4.4123534694
H        1.5778623668   -1.0526421843    8.0394235502
H       -0.3804250564   -1.2668501545    4.2234965786
22   

C        1.8694813791   -1.0925219066   -0.1504218150
C        2.2486635012    0.0630319212    0.5404302501
C        1.4553550542   -2.2245638366    0.5591916277
C        2.8387931175   -0.7581386218    6.3065432145
C        2.2164639975    0.0840298570    1.9398600882
C        1.4237759570   -2.2013135594    1.9587347410
C        2.8980574286   -0.7532402354    4.9084903479
C        1.6299328679   -1.0399288046    6.9522647886
C        0.5484456434   -1.3134684623    4.8079696186
C        1.8127546079   -1.0512419071    2.6610595672
C        1.7496278639   -1.0200745335    4.1461833151
C        0.4805134613   -1.3207077633    6.2060284047
Cl      -1.0228575879   -1.6787247646    7.0102440924
H        1.8934442494   -1.1097321168   -1.2363955933
H        2.5646213835    0.9455628410   -0.0084447025
H        1.1572334524   -3.1220553008    0.0247613804
H        3.7310324125   -0.5472812525    6.8893632163
H        2.5010981783    0.9860786855    2.4734716283
H        1.1014943060   -3.0826525667    2.5055722642
H        3.8385012237   -0.5460173488    4.4061712821
H        1.5785996045   -1.0456913005    8.0369965628
H       -0.3444824097   -1.5316000409    4.2305387919
22   

C        1.8715339712   -1.0859432602   -0.1512519894
C        2.3880258888    0.0066976071    0.5515153325
C        1.3148487969   -2.1618493072    0.5467503082
C        2.8069732685   -0.6236049080    6.3006282479
C        2.3490331427    0.0215750458    1.9508241655
C        1.2761837541   -2.1451771980    1.9461492716
C        2.8568930247   -0.6267729449    4.9022175546
C        1.6425383596   -1.0328776943    6.9583089008
C        0.5855663329   -1.4481486546    4.8249217719
C        1.7967097633   -1.0559966020    2.6642813309
C        1.7438329276   -1.0338390520    4.1472658351
C        0.5277221014   -1.4477009897    6.2233737242
Cl      -0.9228405928   -1.9585150893    7.0420164142
H        1.9013164184   -1.0983300298   -1.2371488983
H        2.8166365978    0.8462360074    0.0116815787
H        0.9133625605   -3.0123885122    0.0032560718
H        3.6731808223   -0.3070611355    6.8748343403
H        2.7412015209    0.8809644289    2.4861585853
H        0.8492335619   -2.9910375365    2.4765690547
H        3.7688370668   -0.3207569176    4.3983249171
H        1.5988186683   -1.0323073462    8.0433895239
H       -0.2880368470   -1.7632567310    4.2634461311
22   

C        1.9240010038   -1.0574230015   -0.1569316506
C        1.4077232302   -2.1643804211    0.5207301255
C        2.3712430228    0.0508007761    0.5661464577
C        0.6237509861   -1.7473951228    6.2200375174
C        1.3402876313   -2.1631384872    1.9190909397
C        2.3038792905    0.0506255605    1.9644160222
C        0.6905682263   -1.7505492517    4.8223177582
C        1.5760801173   -1.0456487586    6.9636233439
C        2.6567442171   -0.3549030992    4.9160461925
C        1.7917720734   -1.0585517889    2.6638525530
C        1.7058053476   -1.0507126246    4.1459949538
C        2.5968408961   -0.3472832707    6.3143275732
Cl       3.7912898587    0.5208854077    7.2390698560
H        1.9761470946   -1.0577139034   -1.2420572917
H        1.0610807487   -3.0289385950   -0.0381411661
H        2.7670859333    0.9163775404    0.0425981702
H       -0.1706361176   -2.2877286317    6.7272244544
H        0.9504756833   -3.0433315110    2.4196607080
H        2.6374077536    0.9341480576    2.4989613670
H       -0.0706766217   -2.2883846679    4.2666365263
H        1.5284377736   -1.0406405256    8.0485330628
H        3.4721089573    0.1759620972    4.4369638315
22   

C        1.9156453997   -1.0542985231   -0.1662575636
C        1.2709786491   -2.0915273748    0.5077698187
C        2.4950792669   -0.0158050382    0.5625104683
C        0.7185243732   -1.8558912421    6.2391497462
C        1.2098223391   -2.0926732371    1.9065387034
C        2.4336026231   -0.0179140395    1.9609020410
C        0.7809404749   -1.8549160517    4.8411146162
C        1.5880794813   -1.0544033756    6.9797542453
C        2.5811412325   -0.2583026762    4.9273793644
C        1.8001875817   -1.0645926496    2.6658985752
C        1.7043515320   -1.0469758786    4.1511526046
C        2.5246969064   -0.2539982877    6.3257403072
Cl       3.6247259954    0.7363876274    7.2451337680
H        1.9627840882   -1.0532326162   -1.2516169504
H        0.8175688636   -2.9025499671   -0.0549556065
H        2.9887281085    0.8006272184    0.0430810309
H       -0.0102991698   -2.4793371457    6.7494622158
H        0.7135392179   -2.9328578221    2.3769508430
H        2.8717603248    0.8285102642    2.4764714351
H        0.0704107902   -2.4803819730    4.3141090443
H        1.5429121939   -1.0524915396    8.0647838801
H        3.3463406054    0.3552197645    4.4682299214
22   

C        1.9066897726   -1.0512421116   -0.1814875767
C        1.1046496907   -1.9741638602    0.4866264877
C        2.6490890029   -0.1307510526    0.5549118097
C        0.8516739117   -1.9949098122    6.2463883470
C        1.0447041234   -1.9772421068    1.8855660477
C        2.5889504862   -0.1340584121    1.9532761366
C        0.9131400034   -1.9899804494    4.8482249835
C        1.5934333079   -1.0745799369    6.9849147064
C        2.4552891220   -0.1477294833    4.9289771475
C        1.7831880809   -1.0595884639    2.6581512216
C        1.7155819753   -1.0676806849    4.1487511403
C        2.3985610123   -0.1469638136    6.3273484702
Cl       3.3294168632    1.0075403914    7.2424803329
H        1.9528253955   -1.0493394067   -1.2668931128
H        0.5232280496   -2.6946606737   -0.0815955010
H        3.2768697196    0.5920529365    0.0415463822
H        0.2237883107   -2.7183099297    6.7590148197
H        0.3992692430   -2.7247019115    2.3263737783
H        3.1928555238    0.6098623387    2.4556234464
H        0.3093224743   -2.7342625247    4.3468612757
H        1.5479746584   -1.0756903920    8.0699381690
H        3.0998822145    0.5991728263    4.4867138044
22   

C        1.9088796593   -1.0314819930   -0.1735918759
C        0.9646761051   -1.8224463182    0.4811012757
C        2.7932596777   -0.2547450402    0.5746718032
C        0.9965259598   -2.1238575265    6.2350906322
C        0.9020282450   -1.8333067174    1.8797617453
C        2.7297174343   -0.2660471135    1.9729325076
C        1.0591569178   -2.1112358131    4.8371189776
C        1.5965066571   -1.1024142968    6.9724765698
C        2.3147990821   -0.0581865354    4.9167787465
C        1.7727584943   -1.0465709340    2.6575503920
C        1.7304121220   -1.0857127287    4.1448657394
C        2.2562169084   -0.0640215529    6.3150453298
Cl       2.9928653933    1.2234310177    7.2293846455
H        1.9577442333   -1.0234066621   -1.2588461255
H        0.2738186230   -2.4296636909   -0.0968289120
H        3.5382712970    0.3546426553    0.0710251462
H        0.4825450818   -2.9319185317    6.7480713809
H        0.1365871928   -2.4511889595    2.3334194893
H        3.4604040088    0.3305963034    2.5061845224
H        0.5938163900   -2.9380281944    4.3139984187
H        1.5498662480   -1.1085171408    8.0574287659
H        2.8100498849    0.7856812327    4.4526754239
22   

C        1.9067423295   -1.0300680663   -0.1593743352
C        0.8725360586   -1.7061698595    0.4920847055
C        2.8818198834   -0.3680817414    0.5902991832
C        1.1245263250   -2.1862752903    6.2345777728
C        0.8132419300   -1.7187954840    1.8907538739
C        2.8211099496   -0.3809016713    1.9888179394
C        1.1819078091   -2.1745217916    4.8364758645
C        1.6113101092   -1.0979221492    6.9631944592
C        2.2089701991    0.0081460285    4.8999768087
C        1.7828766061   -1.0524508686    2.6617666373
C        1.7291517812   -1.0788016672    4.1451978944
C        2.1547363577    0.0039510783    6.2984906012
Cl       2.7538899737    1.3665743332    7.2039519456
H        1.9534551722   -1.0203261383   -1.2447037427
H        0.1111726797   -2.2201869600   -0.0876331791
H        3.6915504517    0.1531110416    0.0875955149
H        0.7046366535   -3.0431313254    6.7539401187
H       -0.0107297876   -2.2374952598    2.3695900785
H        3.6046633318    0.1226141881    2.5456903323
H        0.8135447358   -3.0389460860    4.2936855521
H        1.5685519556   -1.1024612375    8.0483082053
H        2.6144679396    0.8850539566    4.4072667435
22   

C        1.9148315924   -1.0233559219   -0.1566802477
C        0.8042220475   -1.5818659160    0.4829403368
C        2.9589426739   -0.4877978860    0.6033780532
C        1.2366793560   -2.2518681995    6.2268471795
C        0.7396445688   -1.6059214805    1.8811715718
C        2.8925757551   -0.5122060975    2.0016253716
C        1.2895635568   -2.2390873059    4.8286056275
C        1.6090489092   -1.1140092532    6.9497164184
C        2.0867035713    0.0414970961    4.8814633347
C        1.7849248260   -1.0753860717    2.6565474456
C        1.7099504169   -1.0893605757    4.1386937575
C        2.0364594307    0.0366801818    6.2802073410
Cl       2.5013342803    1.4541909199    7.1800900210
H        1.9657794368   -1.0041962953   -1.2416916055
H       -0.0107446255   -1.9942201301   -0.1050618150
H        3.8233502551   -0.0537640155    0.1090020635
H        0.9102298031   -3.1460499290    6.7503921711
H       -0.1334257522   -2.0303719575    2.3675037645
H        3.7142180851   -0.1010247785    2.5803695760
H        1.0120407659   -3.1305845260    4.2741610009
H        1.5698544056   -1.1189197949    8.0349595611
H        2.4111821044    0.9424919444    4.3709229806
22   

C        1.9206971084   -1.0215289678   -0.1551112285
C        0.7461778802   -1.4430871985    0.4766870767
C        3.0222725241   -0.6282463992    0.6119907052
C        1.3713732736   -2.2834175063    6.2362282960
C        0.6758037405   -1.4740365758    1.8745322644
C        2.9496744989   -0.6598359920    2.0098414061
C        1.4162901045   -2.2798422720    4.8376390444
C        1.6161309518   -1.1020050088    6.9447877413
C        1.9521563679    0.0774595347    4.8619043327
C        1.7803512185   -1.0916433592    2.6528279085
C        1.6962753894   -1.0956750306    4.1372228300
C        1.9094780630    0.0825681670    6.2609725299
Cl       2.2213966126    1.5518275806    7.1436090150
H        1.9762033387   -0.9964787617   -1.2397772094
H       -0.1128236641   -1.7429899453   -0.1167172515
H        3.9343649957   -0.2973110745    0.1235729536
H        1.1506315992   -3.2030359624    6.7708374376
H       -0.2409773877   -1.7914965811    2.3625713059
H        3.8074750753   -0.3535257883    2.6014560065
H        1.2378700485   -3.1988156337    4.2868628273
H        1.5831793524   -1.0994124807    8.0302452913
H        2.1799735706    0.9975976734    4.3329683985
22   

C        1.9192669574   -1.0250307614   -0.1524263473
C        0.6987454035   -1.2834844692    0.4806388312
C        3.0676754846   -0.7967592381    0.6134054340
C        1.5297348199   -2.3117807271    6.2465354168
C        0.6289114095   -1.3160455670    1.8785134933
C        2.9950172197   -0.8299347686    2.0112568682
C        1.5732877159   -2.3113380562    4.8478669039
C        1.6226726058   -1.1039192829    6.9472270615
C        1.8045149832    0.0953266812    4.8563782761
C        1.7783251658   -1.0974185842    2.6530004908
C        1.7017855179   -1.1057792903    4.1420287539
C        1.7621385730    0.1042938657    6.2554909255
Cl       1.8846817387    1.6069852353    7.1283617785
H        1.9746019496   -0.9986931124   -1.2370703975
H       -0.1953829138   -1.4561273295   -0.1115539689
H        4.0157240523   -0.5922313341    0.1241747657
H        1.4267052551   -3.2484958540    6.7870784094
H       -0.3197951659   -1.5094301282    2.3706307286
H        3.8862773897   -0.6497320338    2.6053610740
H        1.5090691798   -3.2471148303    4.3001056215
H        1.5900365347   -1.0984912468    8.0326835933
H        1.9153681917    1.0314084939    4.3178791737
22   

C        1.9066783661   -1.0356912314   -0.1520775529
C        0.6687636732   -1.1029637342    0.4965345599
C        3.0863558087   -0.9889251506    0.5989535649
C        1.7064707083   -2.3235023809    6.2452077027
C        0.6122555796   -1.1235409782    1.8952476467
C        3.0269456107   -1.0096383049    1.9976995153
C        1.7616368403   -2.3127821488    4.8469766542
C        1.6219412053   -1.1165076169    6.9487184187
C        1.6479340947    0.1025515378    4.8614924562
C        1.7912002247   -1.0771869095    2.6538733323
C        1.7327031871   -1.0985959668    4.1458371986
C        1.5923062995    0.1013520273    6.2602018703
Cl       1.4870806690    1.6033678311    7.1364862918
H        1.9518030132   -1.0193162718   -1.2373898062
H       -0.2485465096   -1.1387932808   -0.0841815426
H        4.0485167692   -0.9360990247    0.0975348168
H        1.7292481578   -3.2671150833    6.7830871591
H       -0.3479404975   -1.1751176895    2.4002994327
H        3.9421800138   -0.9727445782    2.5814124776
H        1.8273113354   -3.2465225932    4.2958792902
H        1.5788645179   -1.1189558387    8.0338218953
H        1.6251472767    1.0456660913    4.3243209360
22   

C        1.8952453913   -1.0343655988   -0.1523753740
C        0.6718855294   -0.9045618608    0.5139937275
C        3.0785245660   -1.1721115628    0.5815561062
C        1.8839048450   -2.3111931409    6.2347644779
C        0.6335979653   -0.9101546355    1.9134280494
C        3.0377564416   -1.1773426917    1.9811260593
C        1.9557371563   -2.2794311863    4.8376350007
C        1.6203237188   -1.1350753932    6.9461785717
C        1.4988230178    0.0953948452    4.8689439660
C        1.8176335017   -1.0384836922    2.6556548496
C        1.7730643706   -1.0726723899    4.1455982304
C        1.4249506313    0.0724464985    6.2666173484
Cl       1.0895583394    1.5344826339    7.1525981363
H        1.9260036856   -1.0305655585   -1.2383072300
H       -0.2486019497   -0.8017484237   -0.0535580451
H        4.0290049069   -1.2760349024    0.0660551418
H        2.0296003625   -3.2478020935    6.7655874761
H       -0.3165102925   -0.8163206935    2.4313504487
H        3.9559616212   -1.2868197995    2.5508246339
H        2.1520452614   -3.1911141502    4.2807017576
H        1.5627591270   -1.1542749540    8.0304432570
H        1.3443999236    1.0303094557    4.3392565468
22   

C        1.8884031878   -1.0376250818   -0.1529690097
C        0.6997977343   -0.7361902680    0.5200117660
C        3.0439414192   -1.3410615607    0.5746731123
C        2.0399522109   -2.2666778230    6.2409709816
C        0.6688184309   -0.7352966724    1.9196055650
C        3.0108429193   -1.3396865695    1.9744143829
C        2.1151954163   -2.2309898005    4.8441296267
C        1.6241931717   -1.1319004009    6.9462049524
C        1.3575993963    0.0652586145    4.8632905507
C        1.8270618177   -1.0272932529    2.6580241702
C        1.7857186150   -1.0595287318    4.1437948490
C        1.2792648690    0.0377310119    6.2605666528
Cl       0.7536847131    1.4476907596    7.1385361717
H        1.9131784733   -1.0390273504   -1.2390605186
H       -0.2004539237   -0.5061949199   -0.0426958600
H        3.9672133874   -1.5785286829    0.0539789307
H        2.2998627730   -3.1754842970    6.7764607453
H       -0.2585153585   -0.5118904803    2.4390065817
H        3.9097130230   -1.5762224821    2.5361501849
H        2.4256391125   -3.1152294108    4.2950875192
H        1.5631899509   -1.1546507781    8.0302128918
H        1.0886949535    0.9730050894    4.3322489357
22   

C        1.8896755375   -1.0423028491   -0.1568789239
C        0.7456881342   -0.6022776660    0.5155986166
C        2.9934814070   -1.4960103417    0.5714634262
C        2.1733415898   -2.2324643911    6.2549062712
C        0.7071759389   -0.6144591702    1.9149359956
C        2.9531167684   -1.5079693510    1.9708840457
C        2.2346862575   -2.2058628176    4.8571913082
C        1.6387003397   -1.1435480405    6.9508944375
C        1.2273488920   -0.0092909963    4.8568201212
C        1.8123664720   -1.0628142956    2.6584295290
C        1.7677294487   -1.0902956136    4.1416390383
C        1.1625828911   -0.0282542199    6.2548443683
Cl       0.4950839004    1.3279270790    7.1211242891
H        1.9202230527   -1.0328773938   -1.2427844301
H       -0.1153032061   -0.2537685596   -0.0476390293
H        3.8838192149   -1.8377523322    0.0514113194
H        2.5370619442   -3.0998295072    6.7986134631
H       -0.1919328163   -0.2829532783    2.4256449523
H        3.8195590961   -1.8544736919    2.5259734137
H        2.6378743641   -3.0610537273    4.3231118297
H        1.5887043173   -1.1595053980    8.0355878820
H        0.8631035826    0.8642327710    4.3257491798
22   

C        1.8912016017   -1.0397571818   -0.1596786505
C        0.8004865370   -0.4813510557    0.5107396686
C        2.9272462061   -1.6258568454    0.5711042485
C        2.2884848925   -2.1603334072    6.2804746974
C        0.7459671063   -0.5101844849    1.9093087604
C        2.8711014837   -1.6545794110    1.9696347741
C        2.3269167383   -2.1565655716    4.8817038118
C        1.6531984230   -1.1209382643    6.9648801856
C        1.0986375050   -0.0795039162    4.8563782755
C        1.7773603220   -1.1009347000    2.6615884441
C        1.7289932977   -1.1180829508    4.1453811169
C        1.0564484760   -0.0760711060    6.2553311874
Cl       0.2718858555    1.2261955685    7.1063034163
H        1.9342315815   -1.0167426860   -1.2449606236
H       -0.0083656481   -0.0265073656   -0.0539703564
H        3.7804930154   -2.0549571805    0.0536111728
H        2.7496657017   -2.9731099410    6.8345091655
H       -0.1216772059   -0.0839326475    2.4023367541
H        3.7005451939   -2.0959865785    2.5122735837
H        2.8109280138   -2.9834448504    4.3721740885
H        1.6213032062   -1.1193392954    8.0503763284
H        0.6480294148    0.7548898384    4.3302409348
22   

C        1.8980522986   -1.0331319653   -0.1731796774
C        0.8839374086   -0.3551811006    0.5031448531
C        2.8495385253   -1.7490238992    0.5530041874
C        2.4093029695   -2.0737044997    6.2947489147
C        0.8195491796   -0.3959394278    1.9010808049
C        2.7840340454   -1.7892795080    1.9507149172
C        2.4309130914   -2.0844159633    4.8956159343
C        1.6731219510   -1.1039914639    6.9762152031
C        0.9868923306   -0.1583876512    4.8624002958
C        1.7593974203   -1.1220681199    2.6572113154
C        1.7116182910   -1.1353078037    4.1449256150
C        0.9605248781   -0.1411367210    6.2616280309
Cl       0.0522233555    1.0823471387    7.1068200694
H        1.9483904439   -1.0008429807   -1.2579145969
H        0.1398791906    0.2038806690   -0.0571118982
H        3.6478515958   -2.2703494095    0.0325130445
H        2.9640300220   -2.8234061117    6.8519825751
H       -0.0010170386    0.1319941491    2.3722055412
H        3.5657070507   -2.3344501108    2.4659446930
H        3.0013192298   -2.8699847976    4.4143487847
H        1.6540049732   -1.0917493547    8.0619490235
H        0.4427106439    0.6293881043    4.3567424812
22   

C        1.8784171815   -1.0458569486   -0.1862066370
C        1.0060271873   -0.2077082338    0.5047600949
C        2.7142781278   -1.9009917982    0.5282931251
C        2.5507678468   -1.9574361746    6.3014593350
C        0.9693463852   -0.2243208145    1.9043124404
C        2.6769274292   -1.9169263843    1.9274394172
C        2.5905390630   -1.9439128906    4.9026564373
C        1.6757431153   -1.1164500373    6.9865284078
C        0.8840313856   -0.2522163071    4.8756588329
C        1.8012636599   -1.0769674580    2.6562394865
C        1.7601218999   -1.0926428854    4.1478339143
C        0.8386673714   -0.2601985235    6.2744908894
Cl      -0.2587672513    0.7949710900    7.1225291342
H        1.9065146195   -1.0326063030   -1.2721484349
H        0.3512007918    0.4618654615   -0.0456729737
H        3.3973493666   -2.5576184835   -0.0030176599
H        3.2037850278   -2.6253842712    6.8561989540
H        0.2653820557    0.4556820541    2.3649123856
H        3.3550120629   -2.6070209197    2.4112649818
H        3.2944073364   -2.6238054680    4.4415912681
H        1.6420116131   -1.1240999882    8.0719522415
H        0.2064462995    0.4373913207    4.3918090976
