22   

C        1.8654109308   -1.0660917802   -0.1744317530
C        1.1522254482   -0.0843887961    0.5133809774
C        2.5628474342   -2.0384083445    0.5420546927
C        2.6657757362   -1.8148234390    6.3045494070
C        1.1394482465   -0.0730449816    1.9132880421
C        2.5495642934   -2.0259448349    1.9417600830
C        2.7295918291   -1.7829406733    4.9070282501
C        1.6636552015   -1.1135361900    6.9758558684
C        0.7918049057   -0.3553007200    4.8549482326
C        1.8458659547   -1.0347861920    2.6605102600
C        1.8023724922   -1.0437055815    4.1483916348
C        0.7214037769   -0.3824893721    6.2524946326
Cl      -0.5422085662    0.4823617610    7.0841137585
H        1.8746684235   -1.0752748473   -1.2607357282
H        0.6073063734    0.6756744708   -0.0392738818
H        3.1114690623   -2.8117675302    0.0120311325
H        3.3994025004   -2.3839477085    6.8686179617
H        0.5858669081    0.7243770632    2.3946061468
H        3.0826835384   -2.8219947972    2.4475007765
H        3.5384773523   -2.3277995201    4.4348707491
H        1.6101836458   -1.1359647575    8.0602778473
H        0.0182905591    0.2009936369    4.3405298479
22   

C        1.8817433723   -1.0657821734   -0.1571826720
C        1.2826686441   -0.0051063997    0.5261874874
C        2.4482258001   -2.1209330665    0.5616142111
C        2.7324626446   -1.6791319058    6.3070251505
C        1.2513589074    0.0003645067    1.9257567691
C        2.4167657273   -2.1137966228    1.9611917556
C        2.7884021354   -1.6678720082    4.9088814893
C        1.6576279521   -1.0792117327    6.9682458199
C        0.6999761494   -0.4606607171    4.8379388179
C        1.8215456537   -1.0507702391    2.6664203553
C        1.7750222552   -1.0547873246    4.1503950299
C        0.6368225823   -0.4682755963    6.2360808529
Cl      -0.7093882969    0.2722287664    7.0576378743
H        1.9054107362   -1.0707769912   -1.2432910223
H        0.8428501446    0.8184821667   -0.0290448383
H        2.9088302460   -2.9510404909    0.0336701067
H        3.5263902991   -2.1513810957    6.8787829266
H        0.7943973417    0.8456784759    2.4299466081
H        2.8442644581   -2.9573889969    2.4930441540
H        3.6417564428   -2.1249654538    4.4185076037
H        1.6096842945   -1.0859489371    8.0531314881
H       -0.1165355585   -0.0001391321    4.2926729753
22   

C        1.8897110644   -1.0596674877   -0.1503391912
C        1.4065257328    0.0545573979    0.5422179738
C        2.3238393192   -2.1843955688    0.5576542181
C        2.7969500858   -1.5620471678    6.2942062319
C        1.3560480750    0.0424516740    1.9411845361
C        2.2730877132   -2.1946896479    1.9567398852
C        2.8332146591   -1.5736498270    4.8954165028
C        1.6720168435   -1.0636530949    6.9590704325
C        0.6272972432   -0.5893237926    4.8319910279
C        1.7841173881   -1.0842979898    2.6639067469
C        1.7452959146   -1.0927938592    4.1473274417
C        0.5833068384   -0.5743052014    6.2308788917
Cl      -0.8177392518    0.0481652084    7.0584147647
H        1.9289478102   -1.0509060892   -1.2359703208
H        1.0731120428    0.9317392174   -0.0049441417
H        2.6990797030   -3.0516668262    0.0219490459
H        3.6434983000   -1.9361658275    6.8630873220
H        0.9914982298    0.9190083300    2.4683164471
H        2.6050262070   -3.0769872603    2.4955172846
H        3.7160010854   -1.9487908929    4.3863889377
H        1.6391620226   -1.0522489561    8.0444766698
H       -0.2259853301   -0.2151729083    4.2755080948
22   

C        1.8855055970   -1.0596056320   -0.1460421694
C        1.5405675143    0.1011450640    0.5541188384
C        2.1698090634   -2.2372113419    0.5533973589
C        2.8303650719   -1.4267490958    6.2874853110
C        1.4770951358    0.0822081567    1.9524893762
C        2.1058283393   -2.2540367701    1.9519650212
C        2.8579240961   -1.4524009743    4.8886683277
C        1.6604418529   -1.0480186799    6.9551465830
C        0.5543650533   -0.7193772908    4.8311527372
C        1.7495135613   -1.0986058406    2.6620860418
C        1.7150827967   -1.1100584424    4.1483505031
C        0.5185943414   -0.6907297506    6.2301414877
Cl      -0.9352222232   -0.2112143727    7.0617294021
H        1.9354596519   -1.0456434111   -1.2311780066
H        1.3252847714    1.0185039467    0.0136596907
H        2.4409692263   -3.1388906806    0.0117404927
H        3.7173676241   -1.6963662591    6.8538456021
H        1.2199654269    0.9881247041    2.4936316574
H        2.3276535173   -3.1699225761    2.4917895715
H        3.7693698230   -1.7340221536    4.3693822906
H        1.6340815448   -1.0255562011    8.0405557233
H       -0.3318884497   -0.4409186762    4.2696066866
22   

C        1.8867663840   -1.0679398132   -0.1450570414
C        1.7113629877    0.1298651611    0.5563512246
C        2.0049081728   -2.2746455009    0.5532627500
C        2.8667302694   -1.2676091872    6.2912661630
C        1.6518194828    0.1191497109    1.9550143484
C        1.9449512054   -2.2828235746    1.9521272338
C        2.9005042663   -1.2904607791    4.8925173744
C        1.6558375530   -1.0417380001    6.9557740343
C        0.5214062289   -0.8600980031    4.8288795881
C        1.7601612421   -1.0886231026    2.6611787249
C        1.7249479228   -1.0963011851    4.1517417739
C        0.4787517499   -0.8353057940    6.2278145620
Cl      -1.0266968952   -0.5468257653    7.0557075423
H        1.9335245754   -1.0606874930   -1.2304002935
H        1.6236353947    1.0685306106    0.0167273369
H        2.1441611259   -3.2053443031    0.0107112553
H        3.7794911133   -1.4220112358    6.8598276607
H        1.5225447039    1.0494943342    2.5004497288
H        2.0392060025   -3.2192096900    2.4942905391
H        3.8393014937   -1.4573401616    4.3722401093
H        1.6241535142   -1.0222413082    8.0410977872
H       -0.3898110427   -0.6969843468    4.2618173545
22   

C        1.8770479111   -1.0790291089   -0.1465643415
C        1.9016239368    0.1358288111    0.5471119653
C        1.8125648027   -2.2849798843    0.5601396595
C        2.8893632120   -1.0907735435    6.3028693074
C        1.8618624204    0.1430628137    1.9465281020
C        1.7729046897   -2.2749138923    1.9597074217
C        2.9384748042   -1.0969406571    4.9043882578
C        1.6527462320   -1.0437505807    6.9567087057
C        0.5233633279   -1.0093516464    4.8197192263
C        1.7974820640   -1.0625048667    2.6608618016
C        1.7546367197   -1.0562277842    4.1535174278
C        0.4647954261   -1.0028531993    6.2182965075
Cl      -1.0740685093   -0.9443516826    7.0328368081
H        1.9075195558   -1.0859042391   -1.2324887963
H        1.9510867076    1.0734274785    0.0008188225
H        1.7928036542   -3.2292925492    0.0236256961
H        3.8095818326   -1.1224348841    6.8794395546
H        1.8802447999    1.0852815412    2.4865289524
H        1.7222299097   -3.2105621932    2.5090050146
H        3.8954001545   -1.1333551434    4.3916877945
H        1.6087908021   -1.0387553230    8.0417682427
H       -0.3963963268   -0.9776985494    4.2438936503
22   

C        1.8731390634   -1.0909392482   -0.1472262349
C        2.0889057702    0.1088114676    0.5392730677
C        1.6243318238   -2.2681103696    0.5667835164
C        2.8687709074   -0.9165679420    6.3128431978
C        2.0583118205    0.1291716269    1.9387864214
C        1.5943211223   -2.2449184415    1.9664020835
C        2.9311753123   -0.9102793640    4.9149019638
C        1.6320426673   -1.0465395798    6.9548325214
C        0.5293714698   -1.1658415766    4.8070943329
C        1.8187629009   -1.0492129978    2.6618444988
C        1.7598458739   -1.0256666352    4.1515139173
C        0.4575634530   -1.1734168762    6.2050126897
Cl      -1.0810103759   -1.3420720790    7.0046058451
H        1.8958181521   -1.1078973091   -1.2332310117
H        2.2773623385    1.0251401898   -0.0128043579
H        1.4528534143   -3.2001530873    0.0358731725
H        3.7792001735   -0.8234468370    6.8982350850
H        2.2185219613    1.0616582822    2.4720990203
H        1.3981941806   -3.1585257925    2.5201468568
H        3.8896242095   -0.8171913145    4.4123534741
H        1.5778622945   -1.0526420452    8.0394235133
H       -0.3804250508   -1.2668499408    4.2234964801
22   

C        1.8694927901   -1.0925261596   -0.1504213372
C        2.2486681255    0.0630301312    0.5404303838
C        1.4553699966   -2.2245692916    0.5591923041
C        2.8387930225   -0.7581387464    6.3065432122
C        2.2164639975    0.0840298570    1.9398600882
C        1.4237865569   -2.2013174049    1.9587352974
C        2.8980574286   -0.7532402354    4.9084903479
C        1.6299327329   -1.0399290691    6.9522646822
C        0.5484456703   -1.3134687389    4.8079694267
C        1.8127546079   -1.0512419071    2.6610595672
C        1.7496278639   -1.0200745335    4.1461833151
C        0.4805133931   -1.3207081234    6.2060282088
Cl      -1.0228576601   -1.6787253732    7.0102437773
H        1.8934588363   -1.1097375855   -1.2363950280
H        2.5646244818    0.9455614925   -0.0084447395
H        1.1572546036   -3.1220629634    0.0247622988
H        3.7310322624   -0.5472813682    6.8893632929
H        2.5010937638    0.9860801835    2.4734714553
H        1.1015084028   -3.0826574890    2.5055731497
H        3.8385012074   -0.5460172299    4.4061712968
H        1.5785993948   -1.0456916332    8.0369964529
H       -0.3444821917   -1.5316005284    4.2305383814
22   

C        1.8715448564   -1.0859490968   -0.1512514187
C        2.3880302749    0.0066951593    0.5515154792
C        1.3148631934   -2.1618568228    0.5467511568
C        2.8069732071   -0.6236053548    6.3006282503
C        2.3490331427    0.0215750458    1.9508241655
C        1.2761940757   -2.1451824885    1.9461499824
C        2.8568930247   -0.6267729449    4.9022175546
C        1.6425383653   -1.0328786972    6.9583087307
C        0.5855665718   -1.4481495472    4.8249214567
C        1.7967097633   -1.0559966020    2.6642813309
C        1.7438329276   -1.0338390520    4.1472658351
C        0.5277222760   -1.4477022661    6.2233734057
Cl      -0.9228402134   -1.9585172361    7.0420159079
H        1.9013302492   -1.0983375125   -1.2371482285
H        2.8166394582    0.8462341927    0.0116815003
H        0.9133829376   -3.0123990618    0.0032572517
H        3.6731806471   -0.3070615237    6.8748344796
H        2.7411972717    0.8809664754    2.4861584256
H        0.8492473348   -2.9910442277    2.4765703283
H        3.7688369439   -0.3207565257    4.3983249246
H        1.5988186315   -1.0323086579    8.0433893528
H       -0.2880361748   -1.7632580942    4.2634453801
22   

C        1.9239913136   -1.0574183538   -0.1569319188
C        1.4077193406   -2.1643784701    0.5207299366
C        2.3712302308    0.0508066942    0.5661462186
C        0.6237510176   -1.7473947008    6.2200375231
C        1.3402876313   -2.1631384872    1.9190909397
C        2.3038701270    0.0506296456    1.9644159553
C        0.6905682263   -1.7505492517    4.8223177582
C        1.5760799806   -1.0456477915    6.9636231175
C        2.6567438567   -0.3549023406    4.9160457684
C        1.7917720734   -1.0585517889    2.6638525530
C        1.7058053476   -1.0507126246    4.1459949538
C        2.5968405299   -0.3472820893    6.3143271441
Cl       3.7912891075    0.5208873982    7.2390691551
H        1.9761347508   -1.0577079112   -1.2420576854
H        1.0610782228   -3.0289371226   -0.0381414566
H        2.7670678109    0.9163858392    0.0425978379
H       -0.1706359142   -2.2877282850    6.7272246487
H        0.9504794736   -3.0433330638    2.4196609613
H        2.6373954618    0.9341530636    2.4989617748
H       -0.0706763747   -2.2883850153    4.2666365051
H        1.5284376438   -1.0406392454    8.0485328376
H        3.4721080713    0.1759631112    4.4369627339
22   

C        1.9156393804   -1.0542946390   -0.1662576853
C        1.2709762627   -2.0915257725    0.5077697126
C        2.4950711986   -0.0158000210    0.5625103945
C        0.7185244062   -1.8558909762    6.2391497501
C        1.2098223391   -2.0926732371    1.9065387034
C        2.4335967386   -0.0179105331    1.9609020574
C        0.7809404749   -1.8549160517    4.8411146162
C        1.5880795086   -1.0544028989    6.9797540793
C        2.5811412097   -0.2583024747    4.9273790627
C        1.8001875817   -1.0645926496    2.6658985752
C        1.7043515320   -1.0469758786    4.1511526046
C        2.5246969081   -0.2539978444    6.3257400034
Cl       3.6247259315    0.7363883071    7.2451332824
H        1.9627764718   -1.0532276310   -1.2516171405
H        0.8175674066   -2.9025488292   -0.0549557885
H        2.9887166396    0.8006342883    0.0430809490
H       -0.0102990959   -2.4793368082    6.7494623642
H        0.7135417171   -2.9328592008    2.3769510571
H        2.8717521094    0.8285147507    2.4764718786
H        0.0704108876   -2.4803820429    4.3141089686
H        1.5429122264   -1.0524908711    8.0647837139
H        3.3463404469    0.3552197934    4.4682290856
22   

C        1.9066897676   -1.0512420866   -0.1814875723
C        1.1046496839   -1.9741638383    0.4866264869
C        2.6490890029   -0.1307510385    0.5549118234
C        0.8516739276   -1.9949098100    6.2463883523
C        1.0447041234   -1.9772421068    1.8855660477
C        2.5889504870   -0.1340584089    1.9532761472
C        0.9131400034   -1.9899804494    4.8482249835
C        1.5934333290   -1.0745799390    6.9849147116
C        2.4552891198   -0.1477294793    4.9289771489
C        1.7831880809   -1.0595884639    2.6581512216
C        1.7155819753   -1.0676806849    4.1487511403
C        2.3985610138   -0.1469638062    6.3273484727
Cl       3.3294168365    1.0075404192    7.2424803341
H        1.9528253901   -1.0493393677   -1.2668931104
H        0.5232280283   -2.6946606376   -0.0815955038
H        3.2768697229    0.5920529549    0.0415464081
H        0.2237883268   -2.7183099133    6.7590148400
H        0.3992692429   -2.7247019113    2.3263737785
H        3.1928555226    0.6098623397    2.4556234659
H        0.3093224604   -2.7342625204    4.3468612855
H        1.5479746983   -1.0756903983    8.0699381764
H        3.0998822011    0.5991728421    4.4867138095
22   

C        1.9088844959   -1.0314872774   -0.1735915698
C        0.9646780630   -1.8224484003    0.4811013471
C        2.7932660075   -0.2547521534    0.5746722876
C        0.9965261162   -2.1238573793    6.2350906436
C        0.9020282450   -1.8333067174    1.8797617453
C        2.7297219044   -0.2660523144    1.9729329254
C        1.0591569178   -2.1112358131    4.8371189776
C        1.5965069174   -1.1024140492    6.9724764128
C        2.3147991839   -0.0581864596    4.9167784414
C        1.7727584943   -1.0465709340    2.6575503920
C        1.7304121220   -1.0857127287    4.1448657394
C        2.2562171377   -0.0640213390    6.3150450284
Cl       2.9928657074    1.2234313095    7.2293841585
H        1.9577504167   -1.0234133506   -1.2588457680
H        0.2738199402   -2.4296649332   -0.0968289600
H        3.5382802414    0.3546325241    0.0710258462
H        0.4825452884   -2.9319183203    6.7480715394
H        0.1365853889   -2.4511867190    2.3334195401
H        3.4604098257    0.3305889964    2.5061855096
H        0.5938163842   -2.9380281577    4.3139983369
H        1.5498666050   -1.1085167962    8.0574286145
H        2.8100498155    0.7856811480    4.4526745673
22   

C        1.9067485271   -1.0300767561   -0.1593739543
C        0.8725386171   -1.7061733332    0.4920847830
C        2.8818278619   -0.3680932363    0.5902997840
C        1.1245266386   -2.1862751898    6.2345777873
C        0.8132419300   -1.7187954840    1.8907538739
C        2.8211155207   -0.3809099295    1.9888184692
C        1.1819078091   -2.1745217916    4.8364758645
C        1.6113108673   -1.0979220786    6.9631942887
C        2.2089709369    0.0081458182    4.8999764586
C        1.7828766061   -1.0524508686    2.6617666373
C        1.7291517812   -1.0788016672    4.1451978944
C        2.1547373691    0.0039509692    6.2984902661
Cl       2.7538916613    1.3665740393    7.2039514324
H        1.9534631395   -1.0203372132   -1.2447033061
H        0.1111745281   -2.2201891847   -0.0876332769
H        3.6915616592    0.1530947612    0.0875963622
H        0.7046368452   -3.0431310822    6.7539402718
H       -0.0107319578   -2.2374918313    2.3695900913
H        3.6046703074    0.1226030697    2.5456915135
H        0.8135443962   -3.0389459151    4.2936854909
H        1.5685529215   -1.1024610775    8.0483080439
H        2.6144690380    0.8850532666    4.4072657767
22   

C        1.9148376138   -1.0233669143   -0.1566799447
C        0.8042245709   -1.5818703324    0.4829403762
C        2.9589503977   -0.4878123727    0.6033785357
C        1.2366796871   -2.2518680841    6.2268471970
C        0.7396445688   -1.6059214805    1.8811715718
C        2.8925811697   -0.5122164457    2.0016258174
C        1.2895635568   -2.2390873059    4.8286056275
C        1.6090497651   -1.1140091763    6.9497162795
C        2.0867043684    0.0414969220    4.8814630315
C        1.7849248260   -1.0753860717    2.6565474456
C        1.7099504169   -1.0893605757    4.1386937575
C        2.0364605604    0.0366800990    6.2802070516
Cl       2.5013361848    1.4541906871    7.1800895608
H        1.9657871942   -1.0042103247   -1.2416912752
H       -0.0107427468   -1.9942230021   -0.1050619642
H        3.8233611105   -0.0537845512    0.1090027141
H        0.9102299839   -3.1460496756    6.7503923252
H       -0.1334278787   -2.0303676567    2.3675037148
H        3.7142249289   -0.1010386051    2.5803704811
H        1.0120403935   -3.1305844147    4.2741610010
H        1.5698555206   -1.1189196579    8.0349594331
H        2.4111833292    0.9424913739    4.3709222244
22   

C        1.9207014031   -1.0215401460   -0.1551111097
C        0.7461796856   -1.4430917133    0.4766870690
C        3.0222780567   -0.6282611133    0.6119909058
C        1.3713733351   -2.2834174290    6.2362282972
C        0.6758037405   -1.4740365758    1.8745322644
C        2.9496784125   -0.6598464769    2.0098416225
C        1.4162901045   -2.2798422720    4.8376390444
C        1.6161311821   -1.1020049097    6.9447876670
C        1.9521566543    0.0774595065    4.8619041785
C        1.7803512185   -1.0916433592    2.6528279085
C        1.6962753894   -1.0956750306    4.1372228300
C        1.9094784516    0.0825682026    6.2609723838
Cl       2.2213974028    1.5518275775    7.1436087887
H        1.9762088483   -0.9964930000   -1.2397770994
H       -0.1128223189   -1.7429929071   -0.1167173766
H        3.9343727703   -0.2973319097    0.1235731941
H        1.1506315787   -3.2030358350    6.7708374938
H       -0.2409789102   -1.7914922431    2.3625712729
H        3.8074800919   -0.3535397504    2.6014564249
H        1.2378699378   -3.1988156155    4.2868628292
H        1.5831796376   -1.0994123309    8.0302452193
H        2.1799740838    0.9975974844    4.3329680600
22   

C        1.9192686585   -1.0250385034   -0.1524263864
C        0.6987461179   -1.2834875989    0.4806387937
C        3.0676776781   -0.7967693886    0.6134053924
C        1.5297346192   -2.3117806854    6.2465354072
C        0.6289114095   -1.3160455670    1.8785134933
C        2.9950187741   -0.8299419650    2.0112568654
C        1.5732877159   -2.3113380562    4.8478669039
C        1.6226721605   -1.1039191992    6.9472270178
C        1.8045147042    0.0953267163    4.8563782184
C        1.7783251658   -1.0974185842    2.6530004908
C        1.7017855179   -1.1057792903    4.1420287539
C        1.7621380904    0.1042939483    6.2554908616
Cl       1.8846809570    1.6069853685    7.1283616783
H        1.9746041377   -0.9987030029   -1.2370704636
H       -0.1953823774   -1.4561294068   -0.1115540453
H        4.0157271357   -0.5922457011    0.1241746848
H        1.4267050655   -3.2484958052    6.7870784160
H       -0.3197957693   -1.5094271428    2.3706307399
H        3.8862794006   -0.6497415718    2.6053610948
H        1.5090693196   -3.2471148426    4.3001056244
H        1.5900359129   -1.0984911268    8.0326835416
H        1.9153679094    1.0314084992    4.3178790669
22   

C        1.9066783172   -1.0356911432   -0.1520775666
C        0.6687636396   -1.1029636887    0.4965345623
C        3.0863557690   -0.9889250659    0.5989535385
C        1.7064707560   -2.3235023840    6.2452077069
C        0.6122555796   -1.1235409782    1.8952476467
C        3.0269455991   -1.0096382616    1.9976994928
C        1.7616368403   -2.3127821488    4.8469766542
C        1.6219413116   -1.1165076148    6.9487184242
C        1.6479341583    0.1025515448    4.8614924548
C        1.7912002247   -1.0771869095    2.6538733323
C        1.7327031871   -1.0985959668    4.1458371986
C        1.5923064191    0.1013520329    6.2602018733
Cl       1.4870808895    1.6033678407    7.1364863000
H        1.9518029404   -1.0193161596   -1.2373898200
H       -0.2485465570   -1.1387932365   -0.0841815213
H        4.0485167163   -0.9360989219    0.0975347668
H        1.7292482037   -3.2671150907    6.7830871612
H       -0.3479404914   -1.1751177050    2.4002994429
H        3.9421800161   -0.9727445343    2.5814124334
H        1.8273113003   -3.2465225945    4.2958792883
H        1.5788646653   -1.1189558361    8.0338219045
H        1.6251473575    1.0456661016    4.3243209317
22   

C        1.8952464022   -1.0343574452   -0.1523752608
C        0.6718859672   -0.9045585322    0.5139937525
C        3.0785258490   -1.1721009436    0.5815562698
C        1.8839049555   -2.3111930803    6.2347644932
C        0.6335979653   -0.9101546355    1.9134280494
C        3.0377573507   -1.1773351869    1.9811262023
C        1.9557371563   -2.2794311863    4.8376350007
C        1.6203239735   -1.1350752783    6.9461785649
C        1.4988232696    0.0953949158    4.8689439421
C        1.8176335017   -1.0384836922    2.6556548496
C        1.7730643706   -1.0726723899    4.1455982304
C        1.4249509601    0.0724466198    6.2666173247
Cl       1.0895588238    1.5344828170    7.1525980772
H        1.9260049927   -1.0305550947   -1.2383071006
H       -0.2486015963   -0.8017461324   -0.0535580736
H        4.0290067030   -1.2760198552    0.0660553570
H        2.0296004630   -3.2478020162    6.7655875305
H       -0.3165106240   -0.8163238058    2.4313504051
H        3.9559627820   -1.2868098183    2.5508248500
H        2.1520452055   -3.1911141580    4.2807017510
H        1.5627594444   -1.1542747938    8.0304432548
H        1.3444002424    1.0303095187    4.3392564844
22   

C        1.8884065436   -1.0376133869   -0.1529687697
C        0.6997991754   -0.7361855235    0.5200117944
C        3.0439456855   -1.3410462124    0.5746734838
C        2.0399522950   -2.2666778177    6.2409709842
C        0.6688184309   -0.7352966724    1.9196055650
C        3.0108459143   -1.3396756605    1.9744147257
C        2.1151954163   -2.2309898005    4.8441296267
C        1.6241933880   -1.1319003479    6.9462049620
C        1.3575995917    0.0652586800    4.8632905558
C        1.8270618177   -1.0272932529    2.6580241702
C        1.7857186150   -1.0595287318    4.1437948490
C        1.2792651472    0.0377310932    6.2605666678
Cl       0.7536851730    1.4476908963    7.1385362077
H        1.9131828111   -1.0390124024   -1.2390602595
H       -0.2004527763   -0.5061917235   -0.0426959950
H        3.9672193689   -1.5785069341    0.0539794260
H        2.2998628402   -3.1754843030    6.7764607360
H       -0.2585164881   -0.5118949836    2.4390065066
H        3.9097168078   -1.5762079818    2.5361507820
H        2.4256391306   -3.1152293294    4.2950873925
H        1.5631902509   -1.1546507010    8.0302129080
H        1.0886952174    0.9730051666    4.3322489188
22   

C        1.8896805781   -1.0422913946   -0.1568784500
C        0.7456902808   -0.6022730385    0.5155987141
C        2.9934878075   -1.4959952823    0.5714641506
C        2.1733414518   -2.2324645105    6.2549062560
C        0.7071759389   -0.6144591702    1.9149359956
C        2.9531212184   -1.5079586115    1.9708846737
C        2.2346862575   -2.2058628176    4.8571913082
C        1.6386999647   -1.1435482651    6.9508944117
C        1.2273485646   -0.0092911561    4.8568200957
C        1.8123664720   -1.0628142956    2.6584295290
C        1.7677294487   -1.0902956136    4.1416390383
C        1.1625824128   -0.0282544736    6.2548443419
Cl       0.4950830999    1.3279266604    7.1211242727
H        1.9202295521   -1.0328627815   -1.2427838865
H       -0.1153015373   -0.2537654894   -0.0476391636
H        3.8838281827   -1.8377310181    0.0514123260
H        2.5370619228   -3.0998295913    6.7986134281
H       -0.1919345341   -0.2829577232    2.4256448272
H        3.8195646224   -1.8544594031    2.5259745945
H        2.6378746791   -3.0610534067    4.3231115283
H        1.5887038439   -1.1595056802    8.0355878516
H        0.8631031172    0.8642325263    4.3257490956
22   

C        1.8912069420   -1.0397481041   -0.1596780346
C        0.8004887660   -0.4813474279    0.5107398311
C        2.9272530471   -1.6258448110    0.5711051794
C        2.2884846453   -2.1603336121    6.2804746815
C        0.7459671063   -0.5101844849    1.9093087604
C        2.8711062348   -1.6545707577    1.9696355549
C        2.3269167383   -2.1565655716    4.8817038118
C        1.6531978328   -1.1209386492    6.9648801458
C        1.0986369738   -0.0795042316    4.8563782269
C        1.7773603220   -1.1009347000    2.6615884441
C        1.7289932977   -1.1180829508    4.1453811169
C        1.0564477338   -0.0760715607    6.2553311380
Cl       0.2718846623    1.2261948520    7.1063033538
H        1.9342384467   -1.0167311428   -1.2449598951
H       -0.0083640055   -0.0265050513   -0.0539704136
H        3.7805026136   -2.0549401190    0.0536124839
H        2.7496655473   -2.9731101011    6.8345091391
H       -0.1216790441   -0.0839362304    2.4023366455
H        3.7005510420   -2.0959749487    2.5122751619
H        2.8109283761   -2.9834443664    4.3721735835
H        1.6213024550   -1.1193397699    8.0503762825
H        0.6480286592    0.7548893480    4.3302407859
22   

C        1.8980566362   -1.0331262671   -0.1731791785
C        0.8839391765   -0.3551788543    0.5031450012
C        2.8495441655   -1.7490162673    0.5530049319
C        2.4093028514   -2.0737045978    6.2947489088
C        0.8195491796   -0.3959394278    1.9010808049
C        2.7840379987   -1.7892739606    1.9507155261
C        2.4309130914   -2.0844159633    4.8956159343
C        1.6731216709   -1.1039916395    6.9762151611
C        0.9868920728   -0.1583878233    4.8624002288
C        1.7593974203   -1.1220681199    2.6572113154
C        1.7116182910   -1.1353078037    4.1449256150
C        0.9605245218   -0.1411369460    6.2616279672
Cl       0.0522227863    1.0823467697    7.1068199874
H        1.9483959899   -1.0008357448   -1.2579139956
H        0.1398804027    0.2038820220   -0.0571119033
H        3.6478595528   -2.2703385437    0.0325141038
H        2.9640299001   -2.8234062081    6.8519825753
H       -0.0010186235    0.1319917714    2.3722054807
H        3.5657121305   -2.3344423721    2.4659459681
H        3.0013191974   -2.8699846097    4.4143483640
H        1.6540045990   -1.0917495654    8.0619489799
H        0.4427103353    0.6293878222    4.3567422758
22   

C        1.8784171878   -1.0458569595   -0.1862066311
C        1.0060271862   -0.2077082436    0.5047600921
C        2.7142781402   -1.9009917974    0.5282931356
C        2.5507678390   -1.9574362059    6.3014593360
C        0.9693463852   -0.2243208145    1.9043124404
C        2.6769274371   -1.9169263767    1.9274394234
C        2.5905390630   -1.9439128906    4.9026564373
C        1.6757431091   -1.1164500701    6.9865284094
C        0.8840314115   -0.2522162877    4.8756588383
C        1.8012636599   -1.0769674580    2.6562394865
C        1.7601218999   -1.0926428854    4.1478339143
C        0.8386673894   -0.2601985305    6.2744908933
Cl      -0.2587672283    0.7949710774    7.1225291422
H        1.9065146352   -1.0326063328   -1.2721484265
H        0.3512007892    0.4618654360   -0.0456729945
H        3.3973493890   -2.5576184829   -0.0030176340
H        3.2037849988   -2.6253843270    6.8561989551
H        0.2653820427    0.4556820528    2.3649123694
H        3.3550120785   -2.6070209018    2.4112649907
H        3.2944073293   -2.6238054795    4.4415912746
H        1.6420115807   -1.1241000333    8.0719522416
H        0.2064463533    0.4373913796    4.3918091149
