22   

C        1.8654163997   -1.0660875037   -0.1744318719
C        1.1522276105   -0.0843870422    0.5133809868
C        2.5628547674   -2.0384027945    0.5420544495
C        2.6657756632   -1.8148235434    6.3045494050
C        1.1394482465   -0.0730449816    1.9132880421
C        2.5495696579   -2.0259409218    1.9417598334
C        2.7295918291   -1.7829406733    4.9070282501
C        1.6636550856   -1.1135364160    6.9758559016
C        0.7918048104   -0.3553008782    4.8549482986
C        1.8458659547   -1.0347861920    2.6605102600
C        1.8023724922   -1.0437055815    4.1483916348
C        0.7214036437   -0.3824896198    6.2524946946
Cl      -0.5422087903    0.4823613508    7.0841138584
H        1.8746753542   -1.0752693588   -1.2607358425
H        0.6073076800    0.6756756913   -0.0392737628
H        3.1114794913   -2.8117597130    0.0120307840
H        3.3994024238   -2.3839478426    6.8686179407
H        0.5858646028    0.7243754930    2.3946060606
H        3.0826910727   -2.8219897253    2.4475000031
H        3.5384774911   -2.3277996040    4.4348711597
H        1.6101834919   -1.1359650844    8.0602778751
H        0.0182903944    0.2009934902    4.3405300554
22   

C        1.8817527892   -1.0657764591   -0.1571827255
C        1.2826724028   -0.0051040154    0.5261875657
C        2.4482382827   -2.1209257566    0.5616140092
C        2.7324625207   -1.6791320202    6.3070251565
C        1.2513589074    0.0003645067    1.9257567691
C        2.4167747055   -2.1137915482    1.9611914849
C        2.7884021354   -1.6678720082    4.9088814893
C        1.6576277069   -1.0792120942    6.9682458317
C        0.6999759185   -0.4606611166    4.8379388458
C        1.8215456537   -1.0507702391    2.6664203553
C        1.7750222552   -1.0547873246    4.1503950299
C        0.6368222637   -0.4682761164    6.2360808685
Cl      -0.7093888202    0.2722279043    7.0576378691
H        1.9054227205   -1.0707696329   -1.2432910269
H        0.8428525396    0.8184839353   -0.0290445885
H        2.9088479403   -2.9510302374    0.0336698232
H        3.5263902439   -2.1513810691    6.8787829575
H        0.7943936205    0.8456765132    2.4299464953
H        2.8442765505   -2.9573827295    2.4930432123
H        3.6417568672   -2.1249651780    4.4185081552
H        1.6096840122   -1.0859493673    8.0531314988
H       -0.1165359475   -0.0001397118    4.2926731055
22   

C        1.8897237736   -1.0596617812   -0.1503389282
C        1.4065308451    0.0545597988    0.5422181782
C        2.3238560663   -2.1843882707    0.5576544531
C        2.7969498974   -1.5620474761    6.2942062357
C        1.3560480750    0.0424516740    1.9411845361
C        2.2730996746   -2.1946845395    1.9567399268
C        2.8332146591   -1.5736498270    4.8954165028
C        1.6720164975   -1.0636537754    6.9590704359
C        0.6272970279   -0.5893242582    4.8319910409
C        1.7841173881   -1.0842979898    2.6639067469
C        1.7452959146   -1.0927938592    4.1473274417
C        0.5833064748   -0.5743059533    6.2308788974
Cl      -0.8177398356    0.0481639772    7.0584147610
H        1.9289640225   -1.0508987433   -1.2359699184
H        1.0731153852    0.9317410283   -0.0049438028
H        2.6991034228   -3.0516565912    0.0219494103
H        3.6434981222   -1.9361660734    6.8630873492
H        0.9914932754    0.9190063590    2.4683162833
H        2.6050421532   -3.0769808645    2.4955169568
H        3.7160014536   -1.9487904789    4.3863893014
H        1.6391615668   -1.0522498788    8.0444766719
H       -0.2259856414   -0.2151735350    4.2755081569
22   

C        1.8855197872   -1.0596014608   -0.1460416543
C        1.5405732610    0.1011468307    0.5541191212
C        2.1698276804   -2.2372060040    0.5533979720
C        2.8303650320   -1.4267491682    6.2874853145
C        1.4770951358    0.0822081567    1.9524893762
C        2.1058415619   -2.2540329981    1.9519653633
C        2.8579240961   -1.4524009743    4.8886683277
C        1.6604418008   -1.0480188174    6.9551465911
C        0.5543650356   -0.7193773511    4.8311527499
C        1.7495135613   -1.0986058406    2.6620860418
C        1.7150827967   -1.1100584424    4.1483505031
C        0.5185942995   -0.6907298692    6.2301414984
Cl      -0.9352222789   -0.2112145328    7.0617294115
H        1.9354777739   -1.0456380464   -1.2311772949
H        1.3252886045    1.0185053052    0.0136600431
H        2.4409955970   -3.1388831966    0.0117414136
H        3.7173675806   -1.6963663125    6.8538456202
H        1.2199599591    0.9881232753    2.4936314459
H        2.3276711228   -3.1699177671    2.4917898663
H        3.7693699633   -1.7340219586    4.3693824384
H        1.6340814849   -1.0255563845    8.0405557322
H       -0.3318884900   -0.4409187615    4.2696067273
22   

C        1.8867766875   -1.0679384828   -0.1450566477
C        1.7113671726    0.1298657182    0.5563513999
C        2.0049216838   -2.2746437684    0.5532632645
C        2.8667303083   -1.2676089363    6.2912661637
C        1.6518194828    0.1191497109    1.9550143484
C        1.9449607891   -2.2828223213    1.9521275695
C        2.9005042663   -1.2904607791    4.8925173744
C        1.6558376493   -1.0417374181    6.9557740246
C        0.5214063055   -0.8600975669    4.8288795792
C        1.7601612421   -1.0886231026    2.6611787249
C        1.7249479228   -1.0963011851    4.1517417739
C        0.4787518743   -0.8353050848    6.2278145501
Cl      -1.0266966729   -0.5468245090    7.0557075205
H        1.9335377360   -1.0606857902   -1.2303997740
H        1.6236382385    1.0685310240    0.0167274841
H        2.1441802468   -3.2053418822    0.0107120239
H        3.7794911369   -1.4220110053    6.8598276852
H        1.5225407462    1.0494938686    2.5004495841
H        2.0392187333   -3.2192080625    2.4942909724
H        3.8393014717   -1.4573403066    4.3722401158
H        1.6241536380   -1.0222405244    8.0410977740
H       -0.3898109516   -0.6969837927    4.2618173628
22   

C        1.8770478799   -1.0790290961   -0.1465643488
C        1.9016239203    0.1358288179    0.5471119664
C        1.8125647683   -2.2849798720    0.5601396511
C        2.8893632197   -1.0907735669    6.3028693045
C        1.8618624204    0.1430628137    1.9465281020
C        1.7729046663   -2.2749138888    1.9597074148
C        2.9384748042   -1.0969406571    4.9043882578
C        1.6527462471   -1.0437505935    6.9567087088
C        0.5233633340   -1.0093516367    4.8197192354
C        1.7974820640   -1.0625048667    2.6608618016
C        1.7546367197   -1.0562277842    4.1535174278
C        0.4647954413   -1.0028531830    6.2182965177
Cl      -1.0740684836   -0.9443516175    7.0328368287
H        1.9075195148   -1.0859042185   -1.2324888042
H        1.9510866905    1.0734274898    0.0008188329
H        1.7928036078   -3.2292925325    0.0236256808
H        3.8095818414   -1.1224349315    6.8794395426
H        1.8802448154    1.0852815402    2.4865289537
H        1.7222298804   -3.2105621928    2.5090050023
H        3.8954001561   -1.1333551427    4.3916877974
H        1.6087908250   -1.0387553477    8.0417682465
H       -0.3963963249   -0.9776985305    4.2438936683
22   

C        1.8731290301   -1.0909371292   -0.1472265635
C        2.0889016908    0.1088123683    0.5392729673
C        1.6243186809   -2.2681076529    0.5667830627
C        2.8687709515   -0.9165680344    6.3128432006
C        2.0583118205    0.1291716269    1.9387864214
C        1.5943117949   -2.2449165195    1.9664017256
C        2.9311753123   -0.9102793640    4.9149019638
C        1.6320427400   -1.0465397399    6.9548325623
C        0.5293714928   -1.1658417017    4.8070944038
C        1.8187629009   -1.0492129978    2.6618444988
C        1.7598458739   -1.0256666352    4.1515139173
C        0.4575635157   -1.1734170692    6.2050127608
Cl      -1.0810102826   -1.3420724245    7.0046059483
H        1.8958053254   -1.1078945769   -1.2332314082
H        2.2773595698    1.0251408862   -0.0128043489
H        1.4528348098   -3.2001492709    0.0358725522
H        3.7792002362   -0.8234469605    6.8982350625
H        2.2185258383    1.0616575359    2.4720991589
H        1.3981817811   -3.1585233079    2.5201463391
H        3.8896242017   -0.8171912757    4.4123534690
H        1.5778624015   -1.0526422483    8.0394235555
H       -0.3804250691   -1.2668500598    4.2234966149
22   

C        1.8694791195   -1.0925210613   -0.1504219120
C        2.2486626003    0.0630322754    0.5404302227
C        1.4553520436   -2.2245627389    0.5591914916
C        2.8387931238   -0.7581385404    6.3065432176
C        2.2164639975    0.0840298570    1.9398600882
C        1.4237738004   -2.2013127781    1.9587346303
C        2.8980574286   -0.7532402354    4.9084903479
C        1.6299328484   -1.0399285703    6.9522648096
C        0.5484455900   -1.3134682163    4.8079696511
C        1.8127546079   -1.0512419071    2.6610595672
C        1.7496278639   -1.0200745335    4.1461833151
C        0.4805134078   -1.3207074203    6.2060284397
Cl      -1.0228576943   -1.6787241644    7.0102441438
H        1.8934413708   -1.1097310321   -1.2363957078
H        2.5646208007    0.9455631055   -0.0084446937
H        1.1572291741   -3.1220537551    0.0247611988
H        3.7310324382   -0.5472812185    6.8893632075
H        2.5010990661    0.9860783774    2.4734716747
H        1.1014914365   -3.0826515631    2.5055720935
H        3.8385012352   -0.5460174362    4.4061712684
H        1.5785995841   -1.0456910103    8.0369965856
H       -0.3444825131   -1.5315996844    4.2305388605
22   

C        1.8715325312   -1.0859424901   -0.1512520642
C        2.3880253047    0.0066979323    0.5515153139
C        1.3148469354   -2.1618483355    0.5467501982
C        2.8069732826   -0.6236048778    6.3006282481
C        2.3490331427    0.0215750458    1.9508241655
C        1.2761824380   -2.1451765228    1.9461491806
C        2.8568930247   -0.6267729449    4.9022175546
C        1.6425383610   -1.0328775832    6.9583089203
C        0.5855662936   -1.4481485156    4.8249218106
C        1.7967097633   -1.0559966020    2.6642813309
C        1.7438329276   -1.0338390520    4.1472658351
C        0.5277220677   -1.4477008007    6.2233737625
Cl      -0.9228406717   -1.9585147373    7.0420164738
H        1.9013145498   -1.0983290278   -1.2371489865
H        2.8166361917    0.8462362612    0.0116815918
H        0.9133599218   -3.0123871447    0.0032559198
H        3.6731808590   -0.3070611482    6.8748343266
H        2.7412020807    0.8809641602    2.4861586049
H        0.8492317818   -2.9910366742    2.4765688855
H        3.7688370913   -0.3207569851    4.3983249213
H        1.5988186854   -1.0323072221    8.0433895448
H       -0.2880369448   -1.7632565228    4.2634462246
22   

C        1.9240013512   -1.0574231690   -0.1569316422
C        1.4077233720   -2.1643804900    0.5207301349
C        2.3712434859    0.0508005607    0.5661464621
C        0.6237509361   -1.7473950664    6.2200375154
C        1.3402876313   -2.1631384872    1.9190909397
C        2.3038796387    0.0506254037    1.9644160202
C        0.6905682263   -1.7505492517    4.8223177582
C        1.5760799910   -1.0456486110    6.9636233502
C        2.6567441596   -0.3549030407    4.9160462110
C        1.7917720734   -1.0585517889    2.6638525530
C        1.7058053476   -1.0507126246    4.1459949538
C        2.5968407607   -0.3472831133    6.3143275855
Cl       3.7912896063    0.5208857227    7.2390698672
H        1.9761475320   -1.0577141220   -1.2420572767
H        1.0610808416   -3.0289386440   -0.0381411518
H        2.7670865839    0.9163772400    0.0425981768
H       -0.1706361651   -2.2877285876    6.7272244404
H        0.9504755508   -3.0433314576    2.4196606973
H        2.6374082444    0.9341478586    2.4989613402
H       -0.0706766064   -2.2883846979    4.2666365353
H        1.5284375985   -1.0406403089    8.0485330677
H        3.4721089168    0.1759621471    4.4369638781
22   

C        1.9156452907   -1.0542984724   -0.1662575713
C        1.2709786070   -2.0915273604    0.5077698192
C        2.4950791096   -0.0158049545    0.5625104542
C        0.7185243566   -1.8558912494    6.2391497436
C        1.2098223391   -2.0926732371    1.9065387034
C        2.4336024985   -0.0179139689    1.9609020317
C        0.7809404749   -1.8549160517    4.8411146162
C        1.5880794676   -1.0544033945    6.9797542432
C        2.5811411836   -0.2583026208    4.9273793661
C        1.8001875817   -1.0645926496    2.6658985752
C        1.7043515320   -1.0469758786    4.1511526046
C        2.5246968698   -0.2539982653    6.3257403148
Cl       3.6247259327    0.7363876686    7.2451337945
H        1.9627839553   -1.0532325647   -1.2516169577
H        0.8175688477   -2.9025499698   -0.0549556005
H        2.9887278884    0.8006273370    0.0430810108
H       -0.0102991880   -2.4793371491    6.7494622205
H        0.7135392714   -2.9328578492    2.3769508519
H        2.8717601455    0.8285103614    2.4764714277
H        0.0704107895   -2.4803819744    4.3141090462
H        1.5429121796   -1.0524915963    8.0647838769
H        3.3463405200    0.3552198628    4.4682299150
22   

C        1.9066897553   -1.0512420939   -0.1814875747
C        1.1046496730   -1.9741638455    0.4866264855
C        2.6490889905   -0.1307510378    0.5549118087
C        0.8516739422   -1.9949097846    6.2463883588
C        1.0447041234   -1.9772421068    1.8855660477
C        2.5889504738   -0.1340584031    1.9532761338
C        0.9131400034   -1.9899804494    4.8482249835
C        1.5934333416   -1.0745798904    6.9849147012
C        2.4552891129   -0.1477294621    4.9289771302
C        1.7831880809   -1.0595884639    2.6581512216
C        1.7155819753   -1.0676806849    4.1487511403
C        2.3985610101   -0.1469637567    6.3273484489
Cl       3.3294168080    1.0075405181    7.2424802814
H        1.9528253785   -1.0493393752   -1.2668931100
H        0.5232280192   -2.6946606471   -0.0815955085
H        3.2768697054    0.5920529547    0.0415463824
H        0.2237883542   -2.7183098800    6.7590148730
H        0.3992692489   -2.7247019150    2.3263737827
H        3.1928555039    0.6098623562    2.4556234381
H        0.3093224574   -2.7342625292    4.3468613004
H        1.5479747243   -1.0756903217    8.0699381661
H        3.0998821848    0.5991728539    4.4867137731
22   

C        1.9088797454   -1.0314821090   -0.1735918796
C        0.9646761221   -1.8224463501    0.4811012755
C        2.7932598347   -0.2547452330    0.5746718020
C        0.9965260078   -2.1238575594    6.2350906315
C        0.9020282450   -1.8333067174    1.8797617453
C        2.7297175565   -0.2660472572    1.9729325091
C        1.0591569178   -2.1112358131    4.8371189776
C        1.5965067627   -1.1024143676    6.9724765728
C        2.3147991520   -0.0581865801    4.9167787487
C        1.7727584943   -1.0465709340    2.6575503920
C        1.7304121220   -1.0857127287    4.1448657394
C        2.2562170163   -0.0640216247    6.3150453353
Cl       2.9928655425    1.2234309117    7.2293846629
H        1.9577443295   -1.0234067998   -1.2588461277
H        0.2738186072   -2.4296636882   -0.0968289118
H        3.5382715309    0.3546423606    0.0710251366
H        0.4825451140   -2.9319185527    6.7480713756
H        0.1365871536   -2.4511889113    2.3334194890
H        3.4604041840    0.3305960935    2.5061845308
H        0.5938163466   -2.9380281675    4.3139984150
H        1.5498663911   -1.1085172476    8.0574287699
H        2.8100499530    0.7856811839    4.4526754152
22   

C        1.9067420141   -1.0300676356   -0.1593743528
C        0.8725359223   -1.7061696801    0.4920847024
C        2.8818194886   -0.3680811859    0.5902991529
C        1.1245263168   -2.1862753055    6.2345777712
C        0.8132419300   -1.7187954840    1.8907538739
C        2.8211096805   -0.3809012776    1.9888179114
C        1.1819078091   -2.1745217916    4.8364758645
C        1.6113100696   -1.0979221631    6.9631944746
C        2.2089701852    0.0081460209    4.8999768347
C        1.7828766061   -1.0524508686    2.6617666373
C        1.7291517812   -1.0788016672    4.1451978944
C        2.1547363100    0.0039510677    6.2984906256
Cl       2.7538898602    1.3665743400    7.2039519805
H        1.9534547700   -1.0203255951   -1.2447037625
H        0.1111725818   -2.2201868456   -0.0876331763
H        3.6915498974    0.1531118353    0.0875954764
H        0.7046366556   -3.0431313582    6.7539400930
H       -0.0107296698   -2.2374954483    2.3695900750
H        3.6046629853    0.1226147425    2.5456902623
H        0.8135447386   -3.0389460888    4.2936855558
H        1.5685518976   -1.1024612385    8.0483082210
H        2.6144679224    0.8850539694    4.4072668102
22   

C        1.9148308442   -1.0233545678   -0.1566802806
C        0.8042217304   -1.5818653639    0.4829403340
C        2.9589417214   -0.4877961111    0.6033779945
C        1.2366793006   -2.2518682070    6.2268471754
C        0.7396445688   -1.6059214805    1.8811715718
C        2.8925750911   -0.5122048326    2.0016253178
C        1.2895635568   -2.2390873059    4.8286056275
C        1.6090487780   -1.1140092537    6.9497164368
C        2.0867034429    0.0414971285    4.8814633708
C        1.7849248260   -1.0753860717    2.6565474456
C        1.7099504169   -1.0893605757    4.1386937575
C        2.0364592599    0.0366802027    6.2802073771
Cl       2.5013340153    1.4541909558    7.1800900812
H        1.9657784744   -1.0041945783   -1.2416916429
H       -0.0107448689   -1.9942197542   -0.1050617951
H        3.8233489216   -0.0537615120    0.1090019816
H        0.9102297682   -3.1460499564    6.7503921428
H       -0.1334254961   -2.0303724733    2.3675037725
H        3.7142172459   -0.1010230869    2.5803694645
H        1.0120408277   -3.1305845430    4.2741609982
H        1.5698542462   -1.1189198065    8.0349595787
H        2.4111819037    0.9424920299    4.3709230678
22   

C        1.9206962055   -1.0215266705   -0.1551112626
C        0.7461774960   -1.4430862714    0.4766870791
C        3.0222713650   -0.6282433597    0.6119906464
C        1.3713730744   -2.2834174993    6.2362282897
C        0.6758037405   -1.4740365758    1.8745322644
C        2.9496736837   -0.6598338227    2.0098413482
C        1.4162901045   -2.2798422720    4.8376390444
C        1.6161305805   -1.1020049843    6.9447877578
C        1.9521561420    0.0774595734    4.8619043721
C        1.7803512185   -1.0916433592    2.6528279085
C        1.6962753894   -1.0956750306    4.1372228300
C        1.9094776947    0.0825682007    6.2609725687
Cl       2.2213960659    1.5518276322    7.1436090831
H        1.9762021809   -0.9964758448   -1.2397772433
H       -0.1128239710   -1.7429893139   -0.1167172101
H        3.9343633700   -0.2973067741    0.1235728776
H        1.1506313644   -3.2030359601    6.7708374081
H       -0.2409770727   -1.7914974665    2.3625713208
H        3.8074740371   -0.3535228952    2.6014558933
H        1.2378701573   -3.1988156527    4.2868628243
H        1.5831788281   -1.0994124523    8.0302453047
H        2.1799732939    0.9975977537    4.3329684906
22   

C        1.9192663944   -1.0250284448   -0.1524263532
C        0.6987451502   -1.2834835266    0.4806388452
C        3.0676747935   -0.7967562307    0.6134054117
C        1.5297347646   -2.3117807366    6.2465354151
C        0.6289114095   -1.3160455670    1.8785134933
C        2.9950167506   -0.8299326562    2.0112568418
C        1.5732877159   -2.3113380562    4.8478669039
C        1.6226724009   -1.1039192904    6.9472270706
C        1.8045147786    0.0953266920    4.8563782946
C        1.7783251658   -1.0974185842    2.6530004908
C        1.7017855179   -1.1057792903    4.1420287539
C        1.7621382768    0.1042938690    6.2554909425
Cl       1.8846812301    1.6069852458    7.1283618071
H        1.9746012080   -0.9986901316   -1.2370703962
H       -0.1953831359   -1.4561266811   -0.1115539172
H        4.0157230832   -0.5922270689    0.1241747320
H        1.4267052811   -3.2484958751    6.7870784000
H       -0.3197949786   -1.5094310107    2.3706307425
H        3.8862767984   -0.6497292273    2.6053610192
H        1.5090692887   -3.2471148359    4.3001056187
H        1.5900362776   -1.0984912585    8.0326836018
H        1.9153679076    1.0314085219    4.3178792109
22   

C        1.9066783102   -1.0356910965   -0.1520775693
C        0.6687636363   -1.1029636705    0.4965345630
C        3.0863557652   -0.9889250104    0.5989535347
C        1.7064707625   -2.3235023870    6.2452077056
C        0.6122555796   -1.1235409782    1.8952476467
C        3.0269455958   -1.0096382293    1.9976994902
C        1.7616368403   -2.3127821488    4.8469766542
C        1.6219413383   -1.1165076172    6.9487184223
C        1.6479341700    0.1025515438    4.8614924542
C        1.7912002247   -1.0771869095    2.6538733323
C        1.7327031871   -1.0985959668    4.1458371986
C        1.5923064471    0.1013520332    6.2602018732
Cl       1.4870809289    1.6033678471    7.1364862925
H        1.9518029308   -1.0193160856   -1.2373898216
H       -0.2485465627   -1.1387932228   -0.0841815162
H        4.0485167076   -0.9360988285    0.0975347636
H        1.7292482058   -3.2671150967    6.7830871566
H       -0.3479404892   -1.1751177278    2.4002994447
H        3.9421800146   -0.9727444903    2.5814124278
H        1.8273112896   -3.2465225939    4.2958792860
H        1.5788647025   -1.1189558400    8.0338219028
H        1.6251473764    1.0456660991    4.3243209302
22   

C        1.8952451118   -1.0343677605   -0.1523754135
C        0.6718854095   -0.9045627321    0.5139937212
C        3.0785242135   -1.1721144307    0.5815560502
C        1.8839048878   -2.3111931137    6.2347644835
C        0.6335979653   -0.9101546355    1.9134280494
C        3.0377561877   -1.1773447503    1.9811260107
C        1.9557371563   -2.2794311863    4.8376350007
C        1.6203238139   -1.1350753471    6.9461785704
C        1.4988231169    0.0953948726    4.8689439585
C        1.8176335017   -1.0384836922    2.6556548496
C        1.7730643706   -1.0726723899    4.1455982304
C        1.4249507567    0.0724465446    6.2666173414
Cl       1.0895585316    1.5344827002    7.1525981209
H        1.9260033197   -1.0305682909   -1.2383072740
H       -0.2486020491   -0.8017489896   -0.0535580297
H        4.0290044169   -1.2760389452    0.0660550678
H        2.0296003897   -3.2478020623    6.7655874920
H       -0.3165102001   -0.8163198579    2.4313504666
H        3.9559612962   -1.2868225360    2.5508245692
H        2.1520452141   -3.1911141646    4.2807017645
H        1.5627592438   -1.1542748833    8.0304432580
H        1.3444000492    1.0303094857    4.3392565361
22   

C        1.8884024659   -1.0376275562   -0.1529690632
C        0.6997974197   -0.7361912827    0.5200117609
C        3.0439405171   -1.3410647700    0.5746730247
C        2.0399523326   -2.2666777821    6.2409709898
C        0.6688184309   -0.7352966724    1.9196055650
C        3.0108422917   -1.3396888399    1.9744143025
C        2.1151954163   -2.2309898005    4.8441296267
C        1.6241934196   -1.1319003203    6.9462049705
C        1.3575995891    0.0652586805    4.8632905644
C        1.8270618177   -1.0272932529    2.6580241702
C        1.7857186150   -1.0595287318    4.1437948490
C        1.2792651320    0.0377310977    6.2605666716
Cl       0.7536850561    1.4476908726    7.1385361928
H        1.9131775395   -1.0390305176   -1.2390605764
H       -0.2004541810   -0.5061956211   -0.0426958281
H        3.9672121294   -1.5785332080    0.0539788119
H        2.2998628668   -3.1754842644    6.7764607514
H       -0.2585151163   -0.5118895338    2.4390066062
H        3.9097122360   -1.5762254948    2.5361500439
H        2.4256389709   -3.1152294671    4.2950875309
H        1.5631902897   -1.1546506689    8.0302129171
H        1.0886952019    0.9730051803    4.3322489618
22   

C        1.8896750348   -1.0423042722   -0.1568789422
C        0.7456879574   -0.6022782307    0.5155985977
C        2.9934807054   -1.4960122248    0.5714634118
C        2.1733417051   -2.2324643355    6.2549062764
C        0.7071759389   -0.6144591702    1.9149359956
C        2.9531162469   -1.5079706806    1.9708840297
C        2.2346862575   -2.2058628176    4.8571913082
C        1.6387005833   -1.1435479275    6.9508944486
C        1.2273490306   -0.0092909281    4.8568201283
C        1.8123664720   -1.0628142956    2.6584295290
C        1.7677294487   -1.0902956136    4.1416390383
C        1.1625831459   -0.0282540995    6.2548443843
Cl       0.4950843374    1.3279272757    7.1211243309
H        1.9202224245   -1.0328792106   -1.2427844550
H       -0.1153032700   -0.2537689082   -0.0476390853
H        3.8838182165   -1.8377550162    0.0514113209
H        2.5370620519   -3.0998294584    6.7986134654
H       -0.1919326198   -0.2829527317    2.4256449420
H        3.8195584057   -1.8544754603    2.5259733886
H        2.6378742520   -3.0610537987    4.3231118625
H        1.5887046536   -1.1595052396    8.0355878987
H        0.8631037523    0.8642328521    4.3257491856
22   

C        1.8912013945   -1.0397575733   -0.1596786704
C        0.8004864550   -0.4813512142    0.5107396615
C        2.9272459373   -1.6258573497    0.5711042236
C        2.2884849102   -2.1603334008    6.2804746971
C        0.7459671063   -0.5101844849    1.9093087604
C        2.8711012937   -1.6545797661    1.9696347529
C        2.3269167383   -2.1565655716    4.8817038118
C        1.6531984418   -1.1209382649    6.9648801942
C        1.0986374923   -0.0795039328    4.8563782844
C        1.7773603220   -1.1009347000    2.6615884441
C        1.7289932977   -1.1180829508    4.1453811169
C        1.0564484692   -0.0760711234    6.2553311961
Cl       0.2718858262    1.2261955371    7.1063034194
H        1.9342313218   -1.0167431898   -1.2449606468
H       -0.0083657008   -0.0265074688   -0.0539703593
H        3.7804926409   -2.0549578880    0.0536111446
H        2.7496657350   -2.9731099286    6.8345091576
H       -0.1216771318   -0.0839324987    2.4023367545
H        3.7005449571   -2.0959870513    2.5122735364
H        2.8109279973   -2.9834448726    4.3721741116
H        1.6213032403   -1.1193392933    8.0503763375
H        0.6480294084    0.7548898280    4.3302409536
22   

C        1.8980524547   -1.0331317972   -0.1731796579
C        0.8839374942   -0.3551810151    0.5031448566
C        2.8495386868   -1.7490237145    0.5530042144
C        2.4093028625   -2.0737045663    6.2947489143
C        0.8195491796   -0.3959394278    1.9010808049
C        2.7840341450   -1.7892793783    1.9507149396
C        2.4309130914   -2.0844159633    4.8956159343
C        1.6731217915   -1.1039915646    6.9762151995
C        0.9868922673   -0.1583876934    4.8624002906
C        1.7593974203   -1.1220681199    2.6572113154
C        1.7116182910   -1.1353078037    4.1449256150
C        0.9605247563   -0.1411367950    6.2616280250
Cl       0.0522232085    1.0823470518    7.1068200608
H        1.9483906573   -1.0008427499   -1.2579145733
H        0.1398792925    0.2038807604   -0.0571119096
H        3.6478518176   -2.2703491485    0.0325130822
H        2.9640298736   -2.8234062070    6.8519825765
H       -0.0010170775    0.1319940909    2.3722055386
H        3.5657071715   -2.3344499226    2.4659447444
H        3.0013192815   -2.8699847597    4.4143487835
H        1.6540047458   -1.0917494997    8.0619490193
H        0.4427105956    0.6293880668    4.3567424668
22   

C        1.8784171795   -1.0458569513   -0.1862066360
C        1.0060271866   -0.2077082357    0.5047600949
C        2.7142781265   -1.9009917999    0.5282931247
C        2.5507678424   -1.9574361744    6.3014593339
C        0.9693463852   -0.2243208145    1.9043124404
C        2.6769274299   -1.9169263850    1.9274394192
C        2.5905390630   -1.9439128906    4.9026564373
C        1.6757431103   -1.1164500382    6.9865284086
C        0.8840313858   -0.2522163047    4.8756588327
C        1.8012636599   -1.0769674580    2.6562394865
C        1.7601218999   -1.0926428854    4.1478339143
C        0.8386673694   -0.2601985231    6.2744908898
Cl      -0.2587672535    0.7949710880    7.1225291381
H        1.9065146130   -1.0326063044   -1.2721484359
H        0.3512007906    0.4618654595   -0.0456729716
H        3.3973493641   -2.5576184856   -0.0030176591
H        3.2037850216   -2.6253842715    6.8561989529
H        0.2653820559    0.4556820540    2.3649123861
H        3.3550120642   -2.6070209184    2.4112649836
H        3.2944073366   -2.6238054686    4.4415912692
H        1.6420116072   -1.1240999931    8.0719522411
H        0.2064463041    0.4373913253    4.3918090975
