22   

C        1.8654118816   -1.0660911176   -0.1744316264
C        1.1522257482   -0.0843884736    0.5133810034
C        2.5628487936   -2.0384074321    0.5420548800
C        2.6657690786   -1.8148314247    6.3045489292
C        1.1394482465   -0.0730449816    1.9132880421
C        2.5495653202   -2.0259441467    1.9417602883
C        2.7295918291   -1.7829406733    4.9070282501
C        1.6636389882   -1.1135564264    6.9758541113
C        0.7917898403   -0.3553209925    4.8549459986
C        1.8458659547   -1.0347861920    2.6605102600
C        1.8023724922   -1.0437055815    4.1483916348
C        0.7213825675   -0.3825168072    6.2524919442
Cl      -0.5422432251    0.4823164078    7.0841092478
H        1.8746696579   -1.0752740642   -1.2607355983
H        0.6073065279    0.6756746897   -0.0392738513
H        3.1114709998   -2.8117662264    0.0120313464
H        3.3993979061   -2.3839524213    6.8686181030
H        0.5858670353    0.7243763554    2.3946077513
H        3.0826848412   -2.8219936793    2.4475014500
H        3.5384833501   -2.3277909301    4.4348709829
H        1.6101629931   -1.1359902208    8.0602757625
H        0.0182711313    0.2009652032    4.3405251232
22   

C        1.8817743348   -1.0657633919   -0.1571827004
C        1.2826810198   -0.0050984150    0.5261877701
C        2.4482665485   -2.1209092469    0.5616137626
C        2.7324537675   -1.6791450500    6.3070247288
C        1.2513589074    0.0003645067    1.9257567691
C        2.4167948849   -2.1137801762    1.9611911020
C        2.7884021354   -1.6678720082    4.9088814893
C        1.6576071004   -1.0792445259    6.9682439640
C        0.6999575356   -0.4606922464    4.8379363720
C        1.8215456537   -1.0507702391    2.6664203553
C        1.7750222552   -1.0547873246    4.1503950299
C        0.6367959587   -0.4683191045    6.2360779611
Cl      -0.7094314071    0.2721573849    7.0576330736
H        1.9054502362   -1.0707528644   -1.2432908876
H        0.8428579549    0.8184880878   -0.0290439932
H        2.9088879939   -2.9510070858    0.0336694183
H        3.5263837021   -2.1513893499    6.8787833838
H        0.7943846463    0.8456708011    2.4299481073
H        2.8443037913   -2.9573683886    2.4930418158
H        3.6417647159   -2.1249520217    4.4185095900
H        1.6096576064   -1.0859905092    8.0531293210
H       -0.1165587721   -0.0001816041    4.2926680485
22   

C        1.8897897315   -1.0596321004   -0.1503375000
C        1.4065574331    0.0545724033    0.5422192658
C        2.3239426677   -2.1843504938    0.5576557505
C        2.7969411409   -1.5620642056    6.2942061790
C        1.3560480750    0.0424516740    1.9411845361
C        2.2731613113   -2.1946582124    1.9567402299
C        2.8332146591   -1.5736498270    4.8954165028
C        1.6719962013   -1.0636950951    6.9590694881
C        0.6272789222   -0.5893632123    4.8319895357
C        1.7841173881   -1.0842979898    2.6639067469
C        1.7452959146   -1.0927938592    4.1473274417
C        0.5832806580   -0.5743603025    6.2308773006
Cl      -0.8177816399    0.0480748063    7.0584122747
H        1.9290481904   -1.0508605714   -1.2359677620
H        1.0731327285    0.9317505772   -0.0049419751
H        2.6992260792   -3.0516036300    0.0219513774
H        3.6434914416   -1.9361768969    6.8630880873
H        0.9914670495    0.9189952797    2.4683165844
H        2.6051243257   -3.0769477952    2.4955155621
H        3.7160098167   -1.9487734339    4.3863913492
H        1.6391355825   -1.0523024027    8.0444756706
H       -0.2260085145   -0.2152254968    4.2755051963
22   

C        1.8856294861   -1.0595691408   -0.1460376588
C        1.5406177025    0.1011605743    0.5541213174
C        2.1699715634   -2.2371646908    0.5534027260
C        2.8303588169   -1.4267660300    6.2874855136
C        1.4770951358    0.0822081567    1.9524893762
C        2.1059437964   -2.2540038222    1.9519680366
C        2.8579240961   -1.4524009743    4.8886683277
C        1.6604273796   -1.0480602942    6.9551465285
C        0.5543519217   -0.7194162753    4.8311523251
C        1.7495135613   -1.0986058406    2.6620860418
C        1.7150827967   -1.1100584424    4.1483505031
C        0.5185758441   -0.6907843254    6.2301412582
Cl      -0.9352522059   -0.2113039325    7.0617292705
H        1.9356178542   -1.0455964860   -1.2311717809
H        1.3253181870    1.0185158882    0.0136627966
H        2.4411993846   -3.1388252807    0.0117485174
H        3.7173628297   -1.6963773247    6.8538463143
H        1.2199171756    0.9881118170    2.4936302717
H        2.3278072055   -3.1698805378    2.4917922723
H        3.7693758844   -1.7340048969    4.3693836169
H        1.6340630330   -1.0256091786    8.0405558070
H       -0.3319054188   -0.4409706493    4.2696059207
22   

C        1.8868771029   -1.0679248837   -0.1450529819
C        1.7114080328    0.1298715624    0.5563531773
C        2.0050530963   -2.2746264273    0.5532678823
C        2.8667280364   -1.2676199971    6.2912662850
C        1.6518194828    0.1191497109    1.9550143484
C        1.9450540172   -2.2828099720    1.9521305051
C        2.9005042663   -1.2904607791    4.8925173744
C        1.6558323644   -1.0417644254    6.9557741419
C        0.5214014648   -0.8601227114    4.8288795639
C        1.7601612421   -1.0886231026    2.6611787249
C        1.7249479228   -1.0963011851    4.1517417739
C        0.4787450985   -0.8353403937    6.2278146607
Cl      -1.0267076945   -0.5468825077    7.0557078172
H        1.9336661094   -1.0606682833   -1.2303948781
H        1.6236658573    1.0685356771    0.0167293466
H        2.1443663616   -3.2053176208    0.0107188105
H        3.7794893902   -1.4220184323    6.8598279471
H        1.5225019948    1.0494892342    2.5004482911
H        2.0393428074   -3.2191922174    2.4942945815
H        3.8393035372   -1.4573294017    4.3722403382
H        1.6241468612   -1.0222749744    8.0410979817
H       -0.3898173035   -0.6970173156    4.2618173912
22   

C        1.8770475829   -1.0790290968   -0.1465643531
C        1.9016237966    0.1358288155    0.5471119620
C        1.8125643878   -2.2849798681    0.5601396470
C        2.8893632091   -1.0907735437    6.3028693048
C        1.8618624204    0.1430628137    1.9465281020
C        1.7729044001   -2.2749138817    1.9597074124
C        2.9384748042   -1.0969406571    4.9043882578
C        1.6527462314   -1.0437505588    6.9567087027
C        0.5233633309   -1.0093516435    4.8197192237
C        1.7974820640   -1.0625048667    2.6608618016
C        1.7546367197   -1.0562277842    4.1535174278
C        0.4647954292   -1.0028531685    6.2182965026
Cl      -1.0740685026   -0.9443516013    7.0328367971
H        1.9075191346   -1.0859042225   -1.2324888098
H        1.9510866064    1.0734274825    0.0008188233
H        1.7928030701   -3.2292925265    0.0236256776
H        3.8095818307   -1.1224348884    6.8794395456
H        1.8802449408    1.0852815376    2.4865289539
H        1.7222295278   -3.2105621792    2.5090050022
H        3.8954001575   -1.1333551436    4.3916878001
H        1.6087908069   -1.0387552910    8.0417682405
H       -0.3963963210   -0.9776985553    4.2438936445
22   

C        1.8730304148   -1.0909167435   -0.1472296218
C        2.0888616142    0.1088209254    0.5392719587
C        1.6241894802   -2.2680812951    0.5667789499
C        2.8687697838   -0.9165565291    6.3128432021
C        2.0583118205    0.1291716269    1.9387864214
C        1.5942201090   -2.2448977181    1.9663985234
C        2.9311753123   -0.9102793640    4.9149019638
C        1.6320398633   -1.0465115440    6.9548326557
C        0.5293684541   -1.1658150229    4.8070946685
C        1.8187629009   -1.0492129978    2.6618444988
C        1.7598458739   -1.0256666352    4.1515139173
C        0.4575595694   -1.1733798990    6.2050130195
Cl      -1.0810167399   -1.3420112666    7.0046064323
H        1.8956792799   -1.1078684223   -1.2332351292
H        2.2773325508    1.0251472876   -0.0128044753
H        1.4526517869   -3.2001121839    0.0358669855
H        3.7791994713   -0.8234392570    6.8982350433
H        2.2185639132    1.0616502658    2.4721004212
H        1.3980596967   -3.1584987739    2.5201418328
H        3.8896253331   -0.8172023685    4.4123535918
H        1.5778588062   -1.0526063625    8.0394236553
H       -0.3804293491   -1.2668140394    4.2234971970
22   

C        1.8693703331   -1.0924811890   -0.1504261135
C        2.2486185263    0.0630489296    0.5404289504
C        1.4552092842   -2.2245111765    0.5591856967
C        2.8387890971   -0.7581202498    6.3065431007
C        2.2164639975    0.0840298570    1.9398600882
C        1.4236723739   -2.2012761448    1.9587299888
C        2.8980574286   -0.7532402354    4.9084903479
C        1.6299226932   -1.0398835524    6.9522648399
C        0.5484350603   -1.3134253380    4.8079701002
C        1.8127546079   -1.0512419071    2.6610595672
C        1.7496278639   -1.0200745335    4.1461833151
C        0.4804995033   -1.3206478327    6.2060288012
Cl      -1.0228805866   -1.6786260163    7.0102448805
H        1.8933024085   -1.1096798793   -1.2364007529
H        2.5645913738    0.9455753859   -0.0084445595
H        1.1570268777   -3.1219811875    0.0247533393
H        3.7310299475   -0.5472690912    6.8893629710
H        2.5011412445    0.9860640836    2.4734733071
H        1.1013561116   -3.0826039674    2.5055651259
H        3.8385052348   -0.5460351230    4.4061714808
H        1.5785868460   -1.0456337827    8.0369965567
H       -0.3444974164   -1.5315415750    4.2305403630
22   

C        1.8714667497   -1.0859088175   -0.1512548023
C        2.3879987538    0.0067117588    0.5515144178
C        1.3147603216   -2.1618044321    0.5467464183
C        2.8069669914   -0.6235866174    6.3006279716
C        2.3490331427    0.0215750458    1.9508241655
C        1.2761206830   -2.1451452906    1.9461462239
C        2.8568930247   -0.6267729449    4.9022175546
C        1.6425226116   -1.0328325845    6.9583084848
C        0.5855506474   -1.4481056083    4.8249216824
C        1.7967097633   -1.0559966020    2.6642813309
C        1.7438329276   -1.0338390520    4.1472658351
C        0.5277008689   -1.4476412182    6.2233734022
Cl      -0.9228755354   -1.9584166319    7.0420159520
H        1.9012306290   -1.0982859379   -1.2371523301
H        2.8166186869    0.8462459759    0.0116814825
H        0.9132371183   -3.0123252188    0.0032506670
H        3.6731768476   -0.3070490681    6.8748340210
H        2.7412277525    0.8809518530    2.4861595084
H        0.8491489761   -2.9909958148    2.4765643186
H        3.7688431797   -0.3207746836    4.3983251922
H        1.5987987746   -1.0322500351    8.0433889343
H       -0.2880584923   -1.7631984693    4.2634468547
22   

C        1.9240244781   -1.0574324639   -0.1569301618
C        1.4077327246   -2.1643840685    0.5207305822
C        2.3712740189    0.0507879373    0.5661485830
C        0.6237600876   -1.7474075701    6.2200379791
C        1.3402876313   -2.1631384872    1.9190909397
C        2.3039015044    0.0506161466    1.9644177217
C        0.6905682263   -1.7505492517    4.8223177582
C        1.5761025239   -1.0456796591    6.9636242464
C        2.6567654786   -0.3549329883    4.9160468095
C        1.7917720734   -1.0585517889    2.6638525530
C        1.7058053476   -1.0507126246    4.1459949538
C        2.5968704547   -0.3473244277    6.3143286119
Cl       3.7913381720    0.5208178070    7.2390714915
H        1.9761770015   -1.0577258715   -1.2420554924
H        1.0610869984   -3.0289406650   -0.0381411344
H        2.7671299088    0.9163592532    0.0426011051
H       -0.1706300159   -2.2877366195    6.7272249677
H        0.9504663792   -3.0433276621    2.4196602358
H        2.6374378696    0.9341349072    2.4989644109
H       -0.0706849991   -2.2883722737    4.2666359488
H        1.5284662509   -1.0406796450    8.0485342715
H        3.4721368459    0.1759216552    4.4369639898
22   

C        1.9156405530   -1.0542939268   -0.1662570040
C        1.2709769145   -2.0915253064    0.5077697384
C        2.4950722996   -0.0157994735    0.5625115783
C        0.7185318035   -1.8558985353    6.2391500797
C        1.2098223391   -2.0926732371    1.9065387034
C        2.4335972572   -0.0179104234    1.9609032132
C        0.7809404749   -1.8549160517    4.8411146162
C        1.5880977212   -1.0544220261    6.9797543838
C        2.5811582302   -0.2583215042    4.9273788309
C        1.8001875817   -1.0645926496    2.6658985752
C        1.7043515320   -1.0469758786    4.1511526046
C        2.5247208083   -0.2540236874    6.3257400644
Cl       3.6247650990    0.7363455591    7.2451332681
H        1.9627780893   -1.0532266061   -1.2516164378
H        0.8175682238   -2.9025481171   -0.0549562515
H        2.9887180155    0.8006349353    0.0430825581
H       -0.0102941337   -2.4793412986    6.7494629695
H        0.7135415282   -2.9328589885    2.3769513534
H        2.8717519444    0.8285141536    2.4764750198
H        0.0704041119   -2.4803738707    4.3141082720
H        1.5429354390   -1.0525149779    8.0647842348
H        3.3463627700    0.3551930602    4.4682271533
22   

C        1.9066897850   -1.0512421110   -0.1814875777
C        1.1046496868   -1.9741638503    0.4866264852
C        2.6490890336   -0.1307510684    0.5549118111
C        0.8516739392   -1.9949098017    6.2463883543
C        1.0447041234   -1.9772421068    1.8855660477
C        2.5889505082   -0.1340584314    1.9532761369
C        0.9131400034   -1.9899804494    4.8482249835
C        1.5934333320   -1.0745799116    6.9849147018
C        2.4552890929   -0.1477294481    4.9289771374
C        1.7831880809   -1.0595884639    2.6581512216
C        1.7155819753   -1.0676806849    4.1487511403
C        2.3985609919   -0.1469637647    6.3273484567
Cl       3.3294167941    1.0075404925    7.2424803052
H        1.9528254110   -1.0493393986   -1.2668931136
H        0.5232280260   -2.6946606463   -0.0815955068
H        3.2768697703    0.5920529114    0.0415463927
H        0.2237883588   -2.7183099128    6.7590148590
H        0.3992692330   -2.7247019041    2.3263737775
H        3.1928555573    0.6098623062    2.4556234491
H        0.3093224689   -2.7342625338    4.3468612941
H        1.5479747127   -1.0756903634    8.0699381658
H        3.0998821503    0.5991728885    4.4867137925
22   

C        1.9088849462   -1.0314859720   -0.1735909161
C        0.9646783981   -1.8224476720    0.4811013644
C        2.7932662889   -0.2547509407    0.5746734430
C        0.9965173445   -2.1238513993    6.2350903050
C        0.9020282450   -1.8333067174    1.8797617453
C        2.7297218628   -0.2660517455    1.9729340575
C        1.0591569178   -2.1112358131    4.8371189776
C        1.5964849472   -1.1023994904    6.9724750766
C        2.3147775772   -0.0581730746    4.9167766391
C        1.7727584943   -1.0465709340    2.6575503920
C        1.7304121220   -1.0857127287    4.1448657394
C        2.2561876673   -0.0640024050    6.3150429146
Cl       2.9928171569    1.2234621879    7.2293805715
H        1.9577510851   -1.0234115515   -1.2588451006
H        0.2738205133   -2.4296640214   -0.0968294215
H        3.5382805545    0.3546340322    0.0710274115
H        0.4825398918   -2.9319141754    6.7480716923
H        0.1365856146   -2.4511868541    2.3334198577
H        3.4604091112    0.3305888400    2.5061886160
H        0.5938256385   -2.9380334213    4.3139982898
H        1.5498388579   -1.1084981913    8.0574270530
H        2.8100198566    0.7856983282    4.4526705179
22   

C        1.9067287530   -1.0300464071   -0.1593743645
C        0.8725307400   -1.7061610704    0.4920845542
C        2.8818016397   -0.3680532301    0.5902992859
C        1.1245123063   -2.1862684529    6.2345772498
C        0.8132419300   -1.7187954840    1.8907538739
C        2.8210966842   -0.3808813009    1.9888181836
C        1.1819078091   -2.1745217916    4.8364758645
C        1.6112754041   -1.0979053579    6.9631929492
C        2.2089369394    0.0081617834    4.8999751282
C        1.7828766061   -1.0524508686    2.6617666373
C        1.7291517812   -1.0788016672    4.1451978944
C        2.1546903406    0.0039731111    6.2984884534
Cl       2.7538143901    1.3666103069    7.2039483740
H        1.9534379543   -1.0202985180   -1.2447038749
H        0.1111695017   -2.2201811163   -0.0876335317
H        3.6915244967    0.1531514847    0.0875955718
H        0.7046275337   -3.0431266731    6.7539399556
H       -0.0107243211   -2.2375038297    2.3695902073
H        3.6046449333    0.1226417546    2.5456913877
H        0.8135585097   -3.0389522165    4.2936859079
H        1.5685079176   -1.1024398297    8.0483063486
H        2.6144231740    0.8850743728    4.4072638446
22   

C        1.9147965658   -1.0232891455   -0.1566812874
C        0.8042076568   -1.5818389801    0.4829401278
C        2.9588970018   -0.4877099130    0.6033765102
C        1.2366609684   -2.2518620858    6.2268465293
C        0.7396445688   -1.6059214805    1.8811715718
C        2.8925432687   -0.5121433248    2.0016240006
C        1.2895635568   -2.2390873059    4.8286056275
C        1.6090035912   -1.1139939355    6.9497150992
C        2.0866603329    0.0415123506    4.8814624116
C        1.7849248260   -1.0753860717    2.6565474456
C        1.7099504169   -1.0893605757    4.1386937575
C        2.0363993990    0.0367008260    6.2802058388
Cl       2.5012354080    1.4542248888    7.1800876096
H        1.9657346144   -1.0041111183   -1.2416927801
H       -0.0107547552   -1.9942024042   -0.1050614720
H        3.8232858188   -0.0536392797    0.1089999893
H        0.9102176446   -3.1460460477    6.7503915890
H       -0.1334129332   -2.0303980413    2.3675039587
H        3.7141755942   -0.1009405193    2.5803671253
H        1.0120585867   -3.1305904688    4.2741616376
H        1.5697968277   -1.1189004523    8.0349578191
H        2.4111235381    0.9425129711    4.3709225925
22   

C        1.9206552796   -1.0214183448   -0.1551120241
C        0.7461604028   -1.4430424281    0.4766871806
C        3.0222184156   -0.6281011362    0.6119893961
C        1.3713547053   -2.2834136316    6.2362277043
C        0.6758037405   -1.4740365758    1.8745322644
C        2.9496360760   -0.6597327337    2.0098399380
C        1.4162901045   -2.2798422720    4.8376390444
C        1.6160853147   -1.1019952369    6.9447866262
C        1.9521129984    0.0774696820    4.8619037397
C        1.7803512185   -1.0916433592    2.6528279085
C        1.6962753894   -1.0956750306    4.1372228300
C        1.9094177299    0.0825815489    6.2609714017
Cl       2.2212972325    1.5518496156    7.1436072897
H        1.9761496754   -0.9963374843   -1.2397779021
H       -0.1128365690   -1.7429601454   -0.1167161971
H        3.9342888110   -0.2971052062    0.1235714791
H        1.1506192090   -3.2030335570    6.7708368740
H       -0.2409623595   -1.7915395006    2.3625715821
H        3.8074251596   -0.3533879579    2.6014532887
H        1.2378879309   -3.1988194932    4.2868634936
H        1.5831213006   -1.0994002300    8.0302437945
H        2.1799147502    0.9976120399    4.3329685348
22   

C        1.9192450301   -1.0249299752   -0.1524257191
C        0.6987361999   -1.2834435157    0.4806393176
C        3.0676471292   -0.7966272113    0.6134061577
C        1.5297233541   -2.3117796928    6.2465350634
C        0.6289114095   -1.3160455670    1.8785134933
C        2.9949970183   -0.8298410980    2.0112570863
C        1.5732877159   -2.3113380562    4.8478669039
C        1.6226444373   -1.1039167181    6.9472262890
C        1.8044882357    0.0953294363    4.8563777399
C        1.7783251658   -1.0974185842    2.6530004908
C        1.7017855179   -1.1057792903    4.1420287539
C        1.7621013730    0.1042974103    6.2554900519
Cl       1.8846205758    1.6069910325    7.1283603915
H        1.9745738185   -0.9985643148   -1.2370694043
H       -0.1953897940   -1.4560997411   -0.1115530911
H        4.0156841322   -0.5920443139    0.1241760656
H        1.4266976391   -3.2484951881    6.7870781510
H       -0.3197873264   -1.5094690191    2.3706305466
H        3.8862510208   -0.6496073018    2.6053611256
H        1.5090802880   -3.2471158571    4.3001060921
H        1.5900007116   -1.0984880677    8.0326825870
H        1.9153320502    1.0314123888    4.3178786864
22   

C        1.9066783237   -1.0356908722   -0.1520775557
C        0.6687636486   -1.1029635788    0.4965345627
C        3.0863557667   -0.9889247003    0.5989535561
C        1.7064707528   -2.3235023797    6.2452077053
C        0.6122555796   -1.1235409782    1.8952476467
C        3.0269455892   -1.0096379958    1.9976995056
C        1.7616368403   -2.3127821488    4.8469766542
C        1.6219412924   -1.1165076133    6.9487184248
C        1.6479341453    0.1025515392    4.8614924584
C        1.7912002247   -1.0771869095    2.6538733323
C        1.7327031871   -1.0985959668    4.1458371986
C        1.5923063892    0.1013520304    6.2602018736
Cl       1.4870808244    1.6033678375    7.1364862924
H        1.9518029537   -1.0193158196   -1.2373898084
H       -0.2485465423   -1.1387931684   -0.0841815276
H        4.0485167104   -0.9360983967    0.0975347951
H        1.7292482053   -3.2671150840    6.7830871562
H       -0.3479404882   -1.1751178209    2.4002994370
H        3.9421799964   -0.9727441746    2.5814124541
H        1.8273113103   -3.2465225947    4.2958792899
H        1.5788646435   -1.1189558352    8.0338219036
H        1.6251473441    1.0456660956    4.3243209419
22   

C        1.8952326811   -1.0344682927   -0.1523768489
C        0.6718800424   -0.9046036446    0.5139933992
C        3.0785083773   -1.1722460444    0.5815540187
C        1.8839157421   -2.3111907698    6.2347650904
C        0.6335979653   -0.9101546355    1.9134280494
C        3.0377449016   -1.1774381300    1.9811242328
C        1.9557371563   -2.2794311863    4.8376350007
C        1.6203503415   -1.1350698809    6.9461798707
C        1.4988479282    0.0953999197    4.8689450525
C        1.8176335017   -1.0384836922    2.6556548496
C        1.7730643706   -1.0726723899    4.1455982304
C        1.4249854978    0.0724535768    6.2666190005
Cl       1.0896155195    1.5344941106    7.1526009705
H        1.9259873180   -1.0306968029   -1.2383089083
H       -0.2486063754   -0.8017766724   -0.0535576431
H        4.0289822744   -1.2762253560    0.0660524563
H        2.0296076466   -3.2478002772    6.7655880999
H       -0.3165060042   -0.8162810343    2.4313511163
H        3.9559468615   -1.2869467842    2.5508219387
H        2.1520344750   -3.1911163220    4.2807015044
H        1.5627930403   -1.1542678962    8.0304449697
H        1.3444331302    1.0303161185    4.3392580498
22   

C        1.8883712978   -1.0377378474   -0.1529710964
C        0.6997841327   -0.7362359993    0.5200114832
C        3.0439007206   -1.3412093612    0.5746699205
C        2.0399691551   -2.2666714134    6.2409720661
C        0.6688184309   -0.7352966724    1.9196055650
C        3.0108142150   -1.3397915116    1.9744114003
C        2.1151954163   -2.2309898005    4.8441296267
C        1.6242347888   -1.1318854975    6.9462070494
C        1.3576383269    0.0652721736    4.8632921362
C        1.8270618177   -1.0272932529    2.6580241702
C        1.7857186150   -1.0595287318    4.1437948490
C        1.2793193927    0.0377500816    6.2605692261
Cl       0.7537741551    1.4477216653    7.1385406352
H        1.9131374395   -1.0391713974   -1.2390627730
H       -0.2004644841   -0.5062254566   -0.0426947946
H        3.9671563432   -1.5787380212    0.0539748150
H        2.2998738811   -3.1754794348    6.7764620337
H       -0.2585041161   -0.5118465557    2.4390077318
H        3.9096764989   -1.5763620926    2.5361450962
H        2.4256219361   -3.1152356106    4.2950878299
H        1.5632429634   -1.1546317177    8.0302157189
H        1.0887468203    0.9730226260    4.3322507994
22   

C        1.8896461417   -1.0423704141   -0.1568815264
C        0.7456756458   -0.6023049183    0.5155980485
C        2.9934439843   -1.4960990588    0.5714594786
C        2.1733582815   -2.2324554481    6.2549072078
C        0.7071759389   -0.6144591702    1.9149359956
C        2.9530906847   -1.5080324933    1.9708806298
C        2.2346862575   -2.2058628176    4.8571913082
C        1.6387416108   -1.1435272324    6.9508958843
C        1.2273877664   -0.0092723959    4.8568208303
C        1.8123664720   -1.0628142956    2.6584295290
C        1.7677294487   -1.0902956136    4.1416390383
C        1.1626371421   -0.0282277271    6.2548458862
Cl       0.4951728978    1.3279699788    7.1211268924
H        1.9201852459   -1.0329636283   -1.2427874296
H       -0.1153126815   -0.2537863705   -0.0476383554
H        3.8837667537   -1.8378779939    0.0514058966
H        2.5370726969   -3.0998227526    6.7986148886
H       -0.1919218772   -0.2829264427    2.4256468051
H        3.8195264240   -1.8545577877    2.5259671182
H        2.6378572564   -3.0610624150    4.3231129296
H        1.5887568135   -1.1594787555    8.0355899325
H        0.8631554651    0.8642563435    4.3257491211
22   

C        1.8911886790   -1.0397790072   -0.1596800194
C        0.8004809931   -0.4813597743    0.5107393096
C        2.9272298557   -1.6258855528    0.5711021878
C        2.2884978179   -2.1603244837    6.2804751067
C        0.7459671063   -0.5101844849    1.9093087604
C        2.8710902177   -1.6545999384    1.9696331057
C        2.3269167383   -2.1565655716    4.8817038118
C        1.6532306992   -1.1209171930    6.9648803327
C        1.0986685083   -0.0794850993    4.8563776656
C        1.7773603220   -1.1009347000    2.6615884441
C        1.7289932977   -1.1180829508    4.1453811169
C        1.0564913095   -0.0760441740    6.2553308993
Cl       0.2719562350    1.2262392519    7.1063028715
H        1.9342150070   -1.0167705287   -1.2449622645
H       -0.0083697768   -0.0265128274   -0.0539701139
H        3.7804700885   -2.0549978775    0.0536082082
H        2.7496738453   -2.9731033182    6.8345101840
H       -0.1216716091   -0.0839236079    2.4023389605
H        3.7005310309   -2.0960142636    2.5122704711
H        2.8109148986   -2.9834529022    4.3721747372
H        1.6213441456   -1.1193123067    8.0503767220
H        0.6480712332    0.7549133171    4.3302383036
22   

C        1.8980559259   -1.0331272763   -0.1731791188
C        0.8839388349   -0.3551791709    0.5031450013
C        2.8495432001   -1.7490177046    0.5530050193
C        2.4093108000   -2.0736978409    6.2947489874
C        0.8195491796   -0.3959394278    1.9010808049
C        2.7840372908   -1.7892750287    1.9507156567
C        2.4309130914   -2.0844159633    4.8956159343
C        1.6731418495   -1.1039751555    6.9762147892
C        0.9869122735   -0.1583725046    4.8623993397
C        1.7593974203   -1.1220681199    2.6572113154
C        1.7116182910   -1.1353078037    4.1449256150
C        0.9605518666   -0.1411153860    6.2616271265
Cl       0.0522679848    1.0823820050    7.1068185105
H        1.9483951547   -1.0008370530   -1.2579139513
H        0.1398801715    0.2038818661   -0.0571118892
H        3.6478581763   -2.2703405932    0.0325141736
H        2.9640346039   -2.8234015383    6.8519830746
H       -0.0010179593    0.1319916173    2.3722071018
H        3.5657109931   -2.3344437281    2.4659465313
H        3.0013106810   -2.8699906762    4.4143480461
H        1.6540300133   -1.0917285414    8.0619486488
H        0.4427387518    0.6294076732    4.3567393765
22   

C        1.8784171839   -1.0458569909   -0.1862066275
C        1.0060271830   -0.2077082664    0.5047600892
C        2.7142781378   -1.9009918228    0.5282931419
C        2.5507678239   -1.9574362298    6.3014593311
C        0.9693463852   -0.2243208145    1.9043124404
C        2.6769274316   -1.9169263881    1.9274394286
C        2.5905390630   -1.9439128906    4.9026564373
C        1.6757430933   -1.1164501027    6.9865284097
C        0.8840314131   -0.2522162941    4.8756588434
C        1.8012636599   -1.0769674580    2.6562394865
C        1.7601218999   -1.0926428854    4.1478339143
C        0.8386673822   -0.2601985497    6.2744909003
Cl      -0.2587672381    0.7949710519    7.1225291567
H        1.9065146274   -1.0326063745   -1.2721484243
H        0.3512007800    0.4618654018   -0.0456730061
H        3.3973493861   -2.5576185140   -0.0030176256
H        3.2037849735   -2.6253843715    6.8561989357
H        0.2653820496    0.4556820546    2.3649123768
H        3.3550120648   -2.6070209167    2.4112649990
H        3.2944073297   -2.6238054735    4.4415912672
H        1.6420115634   -1.1241000894    8.0719522421
H        0.2064463634    0.4373913723    4.3918091143
