22   

C        1.8652032824   -1.0662603349   -0.1744113974
C        1.1521360801   -0.0844508772    0.5133835639
C        2.5625776606   -2.0386230952    0.5420883193
C        2.6650482817   -1.8156993966    6.3044962681
C        1.1394482465   -0.0730449816    1.9132880421
C        2.5493719069   -2.0260911895    1.9417961932
C        2.7295918291   -1.7829406733    4.9070282501
C        1.6618815674   -1.1157526741    6.9756606794
C        0.7901637602   -0.3575122183    4.8546997870
C        1.8458659547   -1.0347861920    2.6605102600
C        1.8023724922   -1.0437055815    4.1483916348
C        0.7190893009   -0.3854864332    6.2521961543
Cl      -0.5459872373    0.4774125704    7.0836139880
H        1.8744077820   -1.0754979945   -1.2607153641
H        0.6072512817    0.6756333419   -0.0392759759
H        3.1110842954   -2.8120695342    0.0120731878
H        3.3988996151   -2.3844670978    6.8686323226
H        0.5860102289    0.7243873916    2.3947870318
H        3.0823985615   -2.8221597839    2.4476178114
H        3.5391264428   -2.3268522519    4.4348725981
H        1.6079201569   -1.1387570499    8.0600463733
H        0.0161787527    0.1978915855    4.3400010973
22   

C        1.8818753892   -1.0656989439   -0.1571692024
C        1.2827213250   -0.0050563447    0.5261919220
C        2.4483766193   -2.1208460825    0.5616321404
C        2.7315573362   -1.6804929513    6.3069779239
C        1.2513589074    0.0003645067    1.9257567691
C        2.4168602099   -2.1137452855    1.9612114296
C        2.7884021354   -1.6678720082    4.9088814893
C        1.6554723760   -1.0826076745    6.9680383078
C        0.6980393754   -0.4639459564    4.8376600890
C        1.8215456537   -1.0507702391    2.6664203553
C        1.7750222552   -1.0547873246    4.1503950299
C        0.6340569759   -0.4727986678    6.2357573255
Cl      -0.7138690156    0.2648049162    7.0571087541
H        1.9055868832   -1.0706745788   -1.2432766730
H        0.8428738978    0.8185198813   -0.0290354926
H        2.9090453564   -2.9509184816    0.0336890919
H        3.5257167298   -2.1522449168    6.8788244482
H        0.7942941821    0.8455169701    2.4301492276
H        2.8443989579   -2.9572929325    2.4931100667
H        3.6425027645   -2.1236107178    4.4185340818
H        1.6069203182   -1.0902493446    8.0528910071
H       -0.1189196096   -0.0045581984    4.2920875918
22   

C        1.8900210207   -1.0595205144   -0.1503261958
C        1.4066531024    0.0546308939    0.5422253933
C        2.3242220663   -2.1842243252    0.5576679977
C        2.7960714493   -1.5637659598    6.2941965463
C        1.3560480750    0.0424516740    1.9411845361
C        2.2733461893   -2.1945787170    1.9567504700
C        2.8332146591   -1.5736498270    4.8954165028
C        1.6699422491   -1.0679063870    6.9589600926
C        0.6254218830   -0.5933733829    4.8318155821
C        1.7841173881   -1.0842979898    2.6639067469
C        1.7452959146   -1.0927938592    4.1473274417
C        0.5806464976   -0.5799305071    6.2306959215
Cl      -0.8220505652    0.0389346280    7.0581374150
H        1.9293492658   -1.0507195695   -1.2359536895
H        1.0731864146    0.9317969923   -0.0049294320
H        2.6996221339   -3.0514283312    0.0219657917
H        3.6428311439   -1.9372895080    6.8631541562
H        0.9913109720    0.9188614307    2.4684409121
H        2.6053763683   -3.0768342945    2.4955431696
H        3.7167253682   -1.9471206267    4.3864123661
H        1.6365008530   -1.0576506883    8.0443599468
H       -0.2283288650   -0.2205635030    4.2751431650
22   

C        1.8857867742   -1.0595200123   -0.1460295760
C        1.5406836327    0.1011859523    0.5541253279
C        2.1701636862   -2.2371079567    0.5534121871
C        2.8297042544   -1.4285780926    6.2875039476
C        1.4770951358    0.0822081567    1.9524893762
C        2.1060721184   -2.2539670570    1.9519748929
C        2.8579240961   -1.4524009743    4.8886683277
C        1.6588869949   -1.0525201457    6.9551306685
C        0.5529385174   -0.7236317122    4.8310929275
C        1.7495135613   -1.0986058406    2.6620860418
C        1.7150827967   -1.1100584424    4.1483505031
C        0.5165928452   -0.6966636553    6.2301019501
Cl      -0.9384700371   -0.2209581454    7.0616975216
H        1.9358213828   -1.0455346049   -1.2311614013
H        1.3253568192    1.0185362332    0.0136692318
H        2.4414716589   -3.1387467319    0.0117617661
H        3.7168610309   -1.6975834497    6.8539138062
H        1.2198148201    0.9880550870    2.4936783575
H        2.3279803474   -3.1698285563    2.4918080926
H        3.7699141815   -1.7322659430    4.3693866463
H        1.6320886582   -1.0312822879    8.0405537715
H       -0.3337109584   -0.4465767460    4.2694763232
22   

C        1.8868643302   -1.0679268716   -0.1450531203
C        1.7114035863    0.1298712492    0.5563529086
C        2.0050324811   -2.2746296216    0.5532676432
C        2.8664603006   -1.2689375168    6.2912803395
C        1.6518194828    0.1191497109    1.9550143484
C        1.9450371345   -2.2828126100    1.9521303447
C        2.9005042663   -1.2904607791    4.8925173744
C        1.6552032145   -1.0449935507    6.9557855090
C        0.5208178490   -0.8631629615    4.8288754405
C        1.7601612421   -1.0886231026    2.6611787249
C        1.7249479228   -1.0963011851    4.1517417739
C        0.4779325145   -0.8395879311    6.2278251803
Cl      -1.0280272754   -0.5538579779    7.0557420587
H        1.9336502476   -1.0606711187   -1.2303951550
H        1.6236600852    1.0685351697    0.0167289815
H        2.1443381847   -3.2053221590    0.0107189184
H        3.7792833494   -1.4229074144    6.8598592573
H        1.5224912982    1.0494823745    2.5004570639
H        2.0393237438   -3.2191934106    2.4942981180
H        3.8395237518   -1.4560776320    4.3722372926
H        1.6233412353   -1.0263865446    8.0411196775
H       -0.3905727088   -0.7010593889    4.2618020650
22   

C        1.8770471890   -1.0790290811   -0.1465643613
C        1.9016236447    0.1358288230    0.5471119579
C        1.8125638533   -2.2849798492    0.5601396337
C        2.8893632736   -1.0907718392    6.3028692997
C        1.8618624204    0.1430628137    1.9465281020
C        1.7729040190   -2.2749138661    1.9597074046
C        2.9384748042   -1.0969406571    4.9043882578
C        1.6527463852   -1.0437464294    6.9567086908
C        0.5233634711   -1.0093477658    4.8197192126
C        1.7974820640   -1.0625048667    2.6608618016
C        1.7546367197   -1.0562277842    4.1535174278
C        0.4647956266   -1.0028477591    6.2182964873
Cl      -1.0740681805   -0.9443427446    7.0328367700
H        1.9075186279   -1.0859042045   -1.2324888220
H        1.9510865204    1.0734274904    0.0008188223
H        1.7928022948   -3.2292925002    0.0236256592
H        3.8095818757   -1.1224337010    6.8794395429
H        1.8802451143    1.0852815300    2.4865289621
H        1.7222290135   -3.2105621579    2.5090049908
H        3.8954000974   -1.1333567361    4.3916878011
H        1.6087910035   -1.0387500300    8.0417682252
H       -0.3963961380   -0.9776933924    4.2438936314
22   

C        1.8729794559   -1.0909245344   -0.1472204825
C        2.0888413161    0.1088142584    0.5392717920
C        1.6241201018   -2.2680815070    0.5667969264
C        2.8686017251   -0.9152428442    6.3128406916
C        2.0583118205    0.1291716269    1.9387864214
C        1.5941698285   -2.2448908655    1.9664173301
C        2.9311753123   -0.9102793640    4.9149019638
C        1.6316547968   -1.0432916340    6.9548042073
C        0.5290159252   -1.1627833460    4.8070531654
C        1.8187629009   -1.0492129978    2.6618444988
C        1.7598458739   -1.0256666352    4.1515139173
C        0.4570682341   -1.1691444908    6.2049710920
Cl      -1.0818092202   -1.3350568175    7.0045536271
H        1.8956140540   -1.1078818012   -1.2332262083
H        2.2773209415    1.0251349060   -0.0128111968
H        1.4525487992   -3.2001096865    0.0358911116
H        3.7790610825   -0.8225524416    6.8982542181
H        2.2185879094    1.0616462683    2.4721010040
H        1.3979762493   -3.1584737952    2.5201784288
H        3.8897522128   -0.8184493241    4.4123657564
H        1.5773639152   -1.0485064916    8.0393943167
H       -0.3808761303   -1.2627861731    4.2234310494
22   

C        1.8690760968   -1.0924495341   -0.1503979762
C        2.2484983769    0.0630476277    0.5404260320
C        1.4548190922   -2.2244321759    0.5592432076
C        2.8382757599   -0.7562745671    6.3065260841
C        2.2164639975    0.0840298570    1.9398600882
C        1.4233945924   -2.2011942652    1.9587907880
C        2.8980574286   -0.7532402354    4.9084903479
C        1.6287286834   -1.0353441352    6.9521649234
C        0.5473494049   -1.3091348228    4.8078333599
C        1.8127546079   -1.0512419071    2.6610595672
C        1.7496278639   -1.0200745335    4.1461833151
C        0.4789721017   -1.3146647773    6.2058797364
Cl      -1.0253513256   -1.6688035725    7.0100309675
H        1.8929251876   -1.1096504419   -1.2363744331
H        2.5645101108    0.9455446012   -0.0084725804
H        1.1564637719   -3.1218569429    0.0248315029
H        3.7306237742   -0.5460367098    6.8894036351
H        2.5012581519    0.9860290121    2.4734716312
H        1.1009466210   -3.0824265267    2.5057041927
H        3.8389120296   -0.5478002184    4.4062065334
H        1.5770535687   -1.0398587789    8.0368864203
H       -0.3458652203   -1.5258395350    4.2303070137
22   

C        1.8710960082   -1.0858697060   -0.1511993973
C        2.3878431446    0.0067005867    0.5515094062
C        1.3142755165   -2.1616843393    0.5468557344
C        2.8062287963   -0.6218108645    6.3005963127
C        2.3490331427    0.0215750458    1.9508241655
C        1.2757799583   -2.1450142148    1.9462599885
C        2.8568930247   -0.6267729449    4.9022175546
C        1.6407851453   -1.0284456707    6.9581532769
C        0.5839830033   -1.4439308316    4.8247118228
C        1.7967097633   -1.0559966020    2.6642813309
C        1.7438329276   -1.0338390520    4.1472658351
C        0.5254761543   -1.4418414526    6.2231359622
Cl      -0.9264766323   -1.9489006043    7.0416473038
H        1.9007533368   -1.0982546392   -1.2370998015
H        2.8165054094    0.8461810138    0.0116263090
H        0.9125383457   -3.0121289132    0.0033991035
H        3.6726100180   -0.3058803002    6.8748782994
H        2.7413738305    0.8808875545    2.4861585917
H        0.8486451026   -2.9906816106    2.4768483337
H        3.7694383221   -0.3224873376    4.3983604458
H        1.5965687439   -1.0266770690    8.0432125545
H       -0.2900058371   -1.7576439127    4.2630481059
22   

C        1.9241882698   -1.0573177343   -0.1568347608
C        1.4078100666   -2.1643038558    0.5207332398
C        2.3714755629    0.0508562493    0.5663195864
C        0.6247701800   -1.7486810712    6.2200886598
C        1.3402876313   -2.1631384872    1.9190909397
C        2.3040337390    0.0506101813    1.9645856221
C        0.6905682263   -1.7505492517    4.8223177582
C        1.5785420295   -1.0488621846    6.9636656049
C        2.6590019045   -0.3580223562    4.9160072242
C        1.7917720734   -1.0585517889    2.6638525530
C        1.7058053476   -1.0507126246    4.1459949538
C        2.6000321305   -0.3515711777    6.3143345068
Cl       3.7964766147    0.5138416838    7.2390779276
H        1.9763929150   -1.0575566679   -1.2419576619
H        1.0611568483   -3.0288122525   -0.0382084963
H        2.7674239733    0.9164234009    0.0428356209
H       -0.1699073965   -2.2885398231    6.7273262077
H        0.9503902332   -3.0432919837    2.4196722577
H        2.6376398223    0.9339558817    2.4993972919
H       -0.0715421990   -2.2870958230    4.2665658544
H        1.5315845350   -1.0447074373    8.0486088515
H        3.4749645587    0.1717445392    4.4367058408
22   

C        1.9154123464   -1.0539903984   -0.1661915836
C        1.2709049741   -2.0913812319    0.5077661656
C        2.4947206666   -0.0154495313    0.5626340403
C        0.7193376457   -1.8567075722    6.2391855352
C        1.2098223391   -2.0926732371    1.9065387034
C        2.4333127291   -0.0176958701    1.9610283678
C        0.7809404749   -1.8549160517    4.8411146162
C        1.5900737448   -1.0564737122    6.9797778425
C        2.5830023057   -0.2603779848    4.9273363072
C        1.8001875817   -1.0645926496    2.6658985752
C        1.7043515320   -1.0469758786    4.1511526046
C        2.5273096692   -0.2568038944    6.3257289834
Cl       3.6289971093    0.7317518488    7.2451036061
H        1.9625013120   -1.0528243471   -1.2515530776
H        0.8175652291   -2.9024036467   -0.0550159586
H        2.9881992836    0.8011137978    0.0432493628
H       -0.0097482183   -2.4798156922    6.7495358079
H        0.7136668587   -2.9329158681    2.3769968502
H        2.8712621797    0.8287075517    2.4768393902
H        0.0696746804   -2.4794896948    4.3140276632
H        1.5454531553   -1.0550973228    8.0648309445
H        3.3487728561    0.3522911635    4.4679689600
22   

C        1.9066913482   -1.0512434180   -0.1814875094
C        1.1046502837   -1.9741643514    0.4866265106
C        2.6490912077   -0.1307528883    0.5549119078
C        0.8516727096   -1.9949087849    6.2463883004
C        1.0447041234   -1.9772421068    1.8855660477
C        2.5889521291   -0.1340597855    1.9532762103
C        0.9131400034   -1.9899804494    4.8482249835
C        1.5934302159   -1.0745773148    6.9849145739
C        2.4552859828   -0.1477268436    4.9289770102
C        1.7831880809   -1.0595884639    2.6581512216
C        1.7155819753   -1.0676806849    4.1487511403
C        2.3985567664   -0.1469602287    6.3273482871
Cl       3.3294097217    1.0075464164    7.2424800211
H        1.9528273858   -1.0493410369   -1.2668930292
H        0.5232283257   -2.6946609051   -0.0815954859
H        3.2768729391    0.5920502560    0.0415465313
H        0.2237876433   -2.7183093397    6.7590148088
H        0.3992684663   -2.7247012542    2.3263737552
H        3.1928581388    0.6098601499    2.4556235616
H        0.3093238820   -2.7342637110    4.3468613412
H        1.5479707730   -1.0756870914    8.0699380042
H        3.0998775575    0.5991767305    4.4867135944
22   

C        1.9092199332   -1.0316561366   -0.1735020822
C        0.9648328776   -1.8224938615    0.4811073838
C        2.7936653628   -0.2550325984    0.5748266753
C        0.9955783611   -2.1231973000    6.2350541877
C        0.9020282450   -1.8333067174    1.8797617453
C        2.7299758429   -0.2662905212    1.9730809899
C        1.0591569178   -2.1112358131    4.8371189776
C        1.5941195186   -1.1008095063    6.9723203585
C        2.3124345583   -0.0567161853    4.9165619008
C        1.7727584943   -1.0465709340    2.6575503920
C        1.7304121220   -1.0857127287    4.1448657394
C        2.2530005780   -0.0619367759    6.3147945077
Cl       2.9875597028    1.2268299240    7.2289605770
H        1.9581918291   -1.0236126132   -1.2587517825
H        0.2739663627   -2.4296442565   -0.0968823942
H        3.5388331646    0.3542116276    0.0712379881
H        0.4819733981   -2.9314565897    6.7480990182
H        0.1365058042   -2.4510716007    2.3334576675
H        3.4606651725    0.3301529258    2.5065823284
H        0.5948274231   -2.9386006462    4.3139887612
H        1.5468552216   -1.1064662415    8.0572480104
H        2.8067577006    0.7875578289    4.4521780446
22   

C        1.9068083974   -1.0298615948   -0.1592817102
C        0.8725961542   -1.7060708516    0.4920871407
C        2.8818251599   -0.3678365011    0.5904635918
C        1.1230820272   -2.1854960872    6.2345245660
C        0.8132419300   -1.7187954840    1.8907538739
C        2.8210592508   -0.3807458415    1.9889793414
C        1.1819078091   -2.1745217916    4.8364758645
C        1.6077203922   -1.0960619379    6.9629801038
C        2.2055128341    0.0098186708    4.8996950445
C        1.7828766061   -1.0524508686    2.6617666373
C        1.7291517812   -1.0788016672    4.1451978944
C        2.1499653012    0.0063389883    6.2981595840
Cl       2.7460624633    1.3704422042    7.2034074888
H        1.9535620712   -1.0200528300   -1.2446088187
H        0.1112872516   -2.2200924863   -0.0876983696
H        3.6915246313    0.1534609091    0.0878187862
H        0.7037069411   -3.0425526602    6.7539718825
H       -0.0106766558   -2.2375720139    2.3696073402
H        3.6044114788    0.1228256143    2.5461061452
H        0.8149661308   -3.0395743245    4.2937122141
H        1.5640022781   -1.1000756046    8.0480577376
H        2.6098380093    0.8871138297    4.4066900634
22   

C        1.9147512157   -1.0229214519   -0.1566108040
C        0.8042172122   -1.5816830941    0.4829424544
C        2.9587674526   -0.4872314645    0.6035030417
C        1.2348792251   -2.2511410366    6.2267844455
C        0.7396445688   -1.6059214805    1.8811715718
C        2.8924042530   -0.5118092195    2.0017481572
C        1.2895635568   -2.2390873059    4.8286056275
C        1.6046053807   -1.1122953187    6.9494809505
C        2.0824780713    0.0430457268    4.8811736446
C        1.7849248260   -1.0753860717    2.6565474456
C        1.7099504169   -1.0893605757    4.1386937575
C        2.0305866824    0.0388755914    6.2798608250
Cl       2.4916978617    1.4577431755    7.1795402525
H        1.9656959531   -1.0036367129   -1.2416201414
H       -0.0106891496   -1.9940860240   -0.1051092346
H        3.8230761979   -0.0529494845    0.1091724314
H        0.9090418191   -3.1454934654    6.7504193986
H       -0.1333469536   -2.0305433060    2.3674987873
H        3.7138455778   -0.1004528476    2.5806620858
H        1.0137755772   -3.1311693971    4.2742315080
H        1.5642084658   -1.1167206830    8.0346821613
H        2.4055648749    0.9444201226    4.3704128196
22   

C        1.9206191197   -1.0211258785   -0.1550719685
C        0.7461603446   -1.4429221924    0.4766896655
C        3.0221328046   -0.6277146438    0.6120613556
C        1.3695049824   -2.2829188015    6.2361678394
C        0.6758037405   -1.4740365758    1.8745322644
C        2.9495488351   -0.6594587627    2.0099100722
C        1.4162901045   -2.2798422720    4.8376390444
C        1.6115387038   -1.1008440237    6.9445783858
C        1.9478175337    0.0785168915    4.8616627877
C        1.7803512185   -1.0916433592    2.6528279085
C        1.6962753894   -1.0956750306    4.1372228300
C        1.9034262409    0.0840534142    6.2606775357
Cl       2.2114602961    1.5542278458    7.1431539552
H        1.9761147796   -0.9959619572   -1.2397358859
H       -0.1128058413   -1.7428773170   -0.1167394466
H        3.9341552182   -0.2965473597    0.1236701352
H        1.1493816524   -3.2026421881    6.7708516420
H       -0.2409258573   -1.7916559145    2.3625659541
H        3.8072381673   -0.3529869104    2.6016039927
H        1.2396553036   -3.1992095417    4.2869432313
H        1.5773364279   -1.0979221898    8.0299964548
H        2.1742087846    0.9989311882    4.3325934695
22   

C        1.9192518860   -1.0248792605   -0.1524140445
C        0.6987426282   -1.2834230930    0.4806402916
C        3.0676458841   -0.7965585677    0.6134272099
C        1.5284086182   -2.3116249057    6.2464932506
C        0.6289114095   -1.3160455670    1.8785134933
C        2.9949889060   -0.8297916833    2.0112778639
C        1.5732877159   -2.3113380562    4.8478669039
C        1.6194231196   -1.1035631535    6.9471003681
C        1.8014560102    0.0956529758    4.8562440526
C        1.7783251658   -1.0974185842    2.6530004908
C        1.7017855179   -1.1057792903    4.1420287539
C        1.7578645703    0.1047475239    6.2553192513
Cl       1.8776634677    1.6077151118    7.1280953277
H        1.9745860864   -0.9984992107   -1.2370571129
H       -0.1953773180   -1.4560876430   -0.1115588554
H        4.0156795645   -0.5919423485    0.1242046628
H        1.4258090229   -3.2483667284    6.7870718538
H       -0.3197830589   -1.5094930625    2.3706301944
H        3.8862237670   -0.6495256811    2.6054005071
H        1.5103274512   -3.2472306158    4.3001569899
H        1.5858986986   -1.0980335948    8.0325293252
H        1.9113041151    1.0318211741    4.3176891201
22   

C        1.9066783077   -1.0356904552   -0.1520775497
C        0.6687636423   -1.1029634100    0.4965345653
C        3.0863557441   -0.9889241620    0.5989535658
C        1.7064690022   -2.3235024665    6.2452076351
C        0.6122555796   -1.1235409782    1.8952476467
C        3.0269455724   -1.0096376210    1.9976995160
C        1.7616368403   -2.3127821488    4.8469766542
C        1.6219369780   -1.1165078185    6.9487182515
C        1.6479300440    0.1025513510    4.8614922910
C        1.7912002247   -1.0771869095    2.6538733323
C        1.7327031871   -1.0985959668    4.1458371986
C        1.5923006936    0.1013517633    6.2602016440
Cl       1.4870715124    1.6033674046    7.1364859164
H        1.9518029333   -1.0193152793   -1.2373898014
H       -0.2485465453   -1.1387930514   -0.0841815251
H        4.0485166806   -0.9360976332    0.0975348124
H        1.7292470494   -3.2671151452    6.7830871100
H       -0.3479404804   -1.1751179848    2.4002994361
H        3.9421799706   -0.9727436675    2.5814124703
H        1.8273129952   -3.2465225146    4.2958793550
H        1.5788591628   -1.1189560968    8.0338216841
H        1.6251418741    1.0456658430    4.3243207144
22   

C        1.8952344284   -1.0344562051   -0.1523763398
C        0.6718802690   -0.9045994884    0.5139933452
C        3.0785112354   -1.1722261173    0.5815548307
C        1.8852286471   -2.3109100374    6.2348379738
C        0.6335979653   -0.9101546355    1.9134280494
C        3.0377472887   -1.1774216036    1.9811249324
C        1.9557371563   -2.2794311863    4.8376350007
C        1.6235692740   -1.1344077733    6.9463341791
C        1.5018791767    0.0960152186    4.8690751027
C        1.8176335017   -1.0384836922    2.6556548496
C        1.7730643706   -1.0726723899    4.1455982304
C        1.4292199424    0.0733097015    6.2668168257
Cl       1.0965691730    1.5358844420    7.1529420467
H        1.9259898423   -1.0306819320   -1.2383083680
H       -0.2486059662   -0.8017711233   -0.0535577142
H        4.0289863383   -1.2761981990    0.0660540120
H        2.0304924625   -3.2475864985    6.7656602638
H       -0.3164995407   -0.8162704757    2.4313606469
H        3.9559476458   -1.2869283597    2.5508263655
H        2.1507863156   -3.1913493981    4.2806441206
H        1.5668913443   -1.1534206309    8.0306488732
H        1.3484639155    1.0311141262    4.3394201657
22   

C        1.8883238097   -1.0378956095   -0.1529717650
C        0.6997594252   -0.7363021809    0.5200116547
C        3.0438459910   -1.3414020774    0.5746688062
C        2.0417718836   -2.2659997864    6.2410844336
C        0.6688184309   -0.7352966724    1.9196055650
C        3.0107787551   -1.3399202973    1.9744112322
C        2.1151954163   -2.2309898005    4.8441296267
C        1.6286745822   -1.1303003566    6.9464192545
C        1.3618368632    0.0667298451    4.8634464203
C        1.8270618177   -1.0272932529    2.6580241702
C        1.7857186150   -1.0595287318    4.1437948490
C        1.2851734861    0.0397928910    6.2608284347
Cl       0.7633862868    1.4510362742    7.1389973034
H        1.9130777010   -1.0393754539   -1.2390636560
H       -0.2004845599   -0.5062643834   -0.0426908035
H        3.9670806491   -1.5790110783    0.0539731453
H        2.3010711193   -3.1749687620    6.7765949748
H       -0.2584503084   -0.5117459389    2.4390623492
H        3.9096260365   -1.5765362157    2.5361513472
H        2.4238901845   -3.1157912388    4.2950047178
H        1.5688897246   -1.1526012152    8.0305044476
H        1.0943331552    0.9748893648    4.3324021341
22   

C        1.8895373231   -1.0426027909   -0.1568845127
C        0.7456183424   -0.6024012014    0.5155977914
C        2.9933210860   -1.4963797183    0.5714548130
C        2.1750505531   -2.2315688564    6.2549971568
C        0.7071759389   -0.6144591702    1.9149359956
C        2.9530132144   -1.5082183034    1.9708798429
C        2.2346862575   -2.2058628176    4.8571913082
C        1.6429330302   -1.1414273651    6.9510290499
C        1.2313823144   -0.0073678556    4.8568740296
C        1.8123664720   -1.0628142956    2.6584295290
C        1.7677294487   -1.0902956136    4.1416390383
C        1.1681830418   -0.0255307426    6.2549819639
Cl       0.5042730641    1.3323410151    7.1213703190
H        1.9200478687   -1.0332660373   -1.2427918185
H       -0.1153586256   -0.2538409339   -0.0476299749
H        3.8835961566   -1.8382756903    0.0513964713
H        2.5381759149   -3.0991549615    6.7987496942
H       -0.1917948619   -0.2827750798    2.4257821298
H        3.8194151236   -1.8548118155    2.5259795262
H        2.6362121060   -3.0617952776    4.3230426879
H        1.5940788300   -1.1567869513    8.0357832228
H        0.8684791941    0.8666464907    4.3256834356
22   

C        1.8911248009   -1.0398811261   -0.1596731876
C        0.8004391200   -0.4814006336    0.5107402572
C        2.9271673259   -1.6259967167    0.5711135015
C        2.2898351504   -2.1594133171    6.2805142249
C        0.7459671063   -0.5101844849    1.9093087604
C        2.8710554723   -1.6546661857    1.9696492819
C        2.3269167383   -2.1565655716    4.8817038118
C        1.6565721777   -1.1187418623    6.9648846773
C        1.1019059326   -0.0775245439    4.8562981985
C        1.7773603220   -1.1009347000    2.6615884441
C        1.7289932977   -1.1180829508    4.1453811169
C        1.0609450507   -0.0732492412    6.2552854673
Cl       0.2792668528    1.2307685310    7.1062278078
H        1.9341376017   -1.0169083970   -1.2449567239
H       -0.0084018753   -0.0265294460   -0.0539633541
H        3.7803826678   -2.0551564686    0.0536178451
H        2.7505187856   -2.9724300661    6.8346099852
H       -0.1215256823   -0.0838401907    2.4025494664
H        3.7004546198   -2.0961125843    2.5123316505
H        2.8095828813   -2.9842048606    4.3721205206
H        1.6255743230   -1.1165244921    8.0504058108
H        0.6524357741    0.7573399139    4.3299131970
22   

C        1.8982222281   -1.0329181157   -0.1731445578
C        0.8840002390   -0.3550891114    0.5031533296
C        2.8497547794   -1.7487461562    0.5530569195
C        2.4101728142   -2.0729681692    6.2947567708
C        0.8195491796   -0.3959394278    1.9010808049
C        2.7841809546   -1.7890818386    1.9507644555
C        2.4309130914   -2.0844159633    4.8956159343
C        1.6753259689   -1.1021929257    6.9761718745
C        0.9890948254   -0.1567194470    4.8622985652
C        1.7593974203   -1.1220681199    2.6572113154
C        1.7116182910   -1.1353078037    4.1449256150
C        0.9635073014   -0.1387871476    6.2615317689
Cl       0.0571490026    1.0861840038    7.1066526137
H        1.9486156178   -1.0005741829   -1.2578752817
H        0.1399210702    0.2039375242   -0.0571103613
H        3.6481558835   -2.2699531095    0.0325821999
H        2.9645432645   -2.8228998108    6.8520357483
H       -0.0010343456    0.1318415694    2.3723802879
H        3.5658697305   -2.3341606323    2.4660799243
H        3.0003791002   -2.8706414069    4.4142895242
H        1.6567806614   -1.0894550794    8.0619099509
H        0.4458088858    0.6315448724    4.3564124752
22   

C        1.8784172195   -1.0458569346   -0.1862066323
C        1.0060272012   -0.2077082363    0.5047600925
C        2.7142781796   -1.9009917691    0.5282931320
C        2.5507678501   -1.9574361901    6.3014593325
C        0.9693463852   -0.2243208145    1.9043124404
C        2.6769274596   -1.9169263588    1.9274394227
C        2.5905390630   -1.9439128906    4.9026564373
C        1.6757431442   -1.1164500286    6.9865284062
C        0.8840314429   -0.2522162502    4.8756588368
C        1.8012636599   -1.0769674580    2.6562394865
C        1.7601218999   -1.0926428854    4.1478339143
C        0.8386674349   -0.2601984721    6.2744908945
Cl      -0.2587671461    0.7949711797    7.1225291507
H        1.9065146677   -1.0326062895   -1.2721484280
H        0.3512008002    0.4618654393   -0.0456729942
H        3.3973494435   -2.5576184380   -0.0030176421
H        3.2037850076   -2.6253843231    6.8561989408
H        0.2653820323    0.4556820357    2.3649123768
H        3.3550121082   -2.6070208744    2.4112649923
H        3.2944073094   -2.6238054944    4.4415912668
H        1.6420116376   -1.1240999922    8.0719522398
H        0.2064464069    0.4373914281    4.3918090997
