22   

C        1.8654029455   -1.0660980466   -0.1744315610
C        1.1522223061   -0.0843913546    0.5133809685
C        2.5628366963   -2.0384164926    0.5420550763
C        2.6657757831   -1.8148234213    6.3045493997
C        1.1394482465   -0.0730449816    1.9132880421
C        2.5495564389   -2.0259505669    1.9417604700
C        2.7295918291   -1.7829406733    4.9070282501
C        1.6636552869   -1.1135360402    6.9758558203
C        0.7918050735   -0.3553004579    4.8549481541
C        1.8458659547   -1.0347861920    2.6605102600
C        1.8023724922   -1.0437055815    4.1483916348
C        0.7214039491   -0.3824890835    6.2524945608
Cl      -0.5422082727    0.4823622390    7.0841136742
H        1.8746583075   -1.0752828693   -1.2607355385
H        0.6073045027    0.6756727055   -0.0392740539
H        3.1114537882   -2.8117790212    0.0120316999
H        3.3994025199   -2.3839477348    6.8686179502
H        0.5858702683    0.7243793534    2.3946062686
H        3.0826725176   -2.8220021982    2.4475019583
H        3.5384771522   -2.3277993999    4.4348701576
H        1.6101837017   -1.1359645800    8.0602777966
H        0.0182908987    0.2009939926    4.3405295764
22   

C        1.8817521798   -1.0657768307   -0.1571827200
C        1.2826721658   -0.0051041657    0.5261875603
C        2.4482374474   -2.1209262470    0.5616140239
C        2.7324624578   -1.6791321124    6.3070251515
C        1.2513589074    0.0003645067    1.9257567691
C        2.4167740955   -2.1137918944    1.9611915043
C        2.7884021354   -1.6678720082    4.9088814893
C        1.6576275564   -1.0792123251    6.9682458157
C        0.6999757944   -0.4606613216    4.8379388255
C        1.8215456537   -1.0507702391    2.6664203553
C        1.7750222552   -1.0547873246    4.1503950299
C        0.6368220711   -0.4682764228    6.2360808441
Cl      -0.7093891517    0.2722273645    7.0576378311
H        1.9054219646   -1.0707701011   -1.2432910243
H        0.8428524042    0.8184838308   -0.0290446074
H        2.9088467597   -2.9510309229    0.0336698420
H        3.5263901921   -2.1513811362    6.8787829562
H        0.7943938626    0.8456766366    2.4299465116
H        2.8442757328   -2.9573831548    2.4930432791
H        3.6417568963   -2.1249651042    4.4185081313
H        1.6096838176   -1.0859496674    8.0531314789
H       -0.1165360792   -0.0001399541    4.2926730617
22   

C        1.8897553830   -1.0596475842   -0.1503382721
C        1.4065435806    0.0545657826    0.5422186916
C        2.3238976925   -2.1843701273    0.5576550385
C        2.7969494595   -1.5620481876    6.2942062446
C        1.3560480750    0.0424516740    1.9411845361
C        2.2731293855   -2.1946718518    1.9567400287
C        2.8332146591   -1.5736498270    4.8954165028
C        1.6720156440   -1.0636554871    6.9590704538
C        0.6272963450   -0.5893257447    4.8319910739
C        1.7841173881   -1.0842979898    2.6639067469
C        1.7452959146   -1.0927938592    4.1473274417
C        0.5833054616   -0.5743080942    6.2308789160
Cl      -0.8177414609    0.0481605039    7.0584147470
H        1.9290043153   -1.0508804871   -1.2359689136
H        1.0731237218    0.9317455557   -0.0049429422
H        2.6991623665   -3.0516311531    0.0219503169
H        3.6434977904   -1.9361664782    6.8630874038
H        0.9914809965    0.9190014783    2.4683158714
H        2.6050817401   -3.0769649962    2.4955161267
H        3.7160024082   -1.9487893949    4.3863902331
H        1.6391605194   -1.0522520531    8.0444766907
H       -0.2259866284   -0.2151755633    4.2755083170
22   

C        1.8855889053   -1.0595810895   -0.1460391589
C        1.5406012773    0.1011554801    0.5541205048
C        2.1699183977   -2.2371799456    0.5534009348
C        2.8303647756   -1.4267497206    6.2874853311
C        1.4770951358    0.0822081567    1.9524893762
C        2.1059060853   -2.2540145773    1.9519670174
C        2.8579240961   -1.4524009743    4.8886683277
C        1.6604413495   -1.0480200664    6.9551466323
C        0.5543647310   -0.7193782649    4.8311528072
C        1.7495135613   -1.0986058406    2.6620860418
C        1.7150827967   -1.1100584424    4.1483505031
C        0.5185938176   -0.6907312841    6.2301415520
Cl      -0.9352230428   -0.2112167912    7.0617294600
H        1.9355660123   -1.0456118340   -1.2311738444
H        1.3253073315    1.0185119851    0.0136617896
H        2.4411240593   -3.1388466715    0.0117458466
H        3.7173673758   -1.6963666275    6.8538456687
H        1.2199332474    0.9881162824    2.4936304331
H        2.3277569969   -3.1698942929    2.4917912931
H        3.7693706825   -1.7340209243    4.3693831755
H        1.6340809140   -1.0255580241    8.0405557801
H       -0.3318889918   -0.4409200240    4.2696069470
22   

C        1.8868464209   -1.0679290296   -0.1450540985
C        1.7113955365    0.1298697795    0.5563526357
C        2.0050129947   -2.2746317090    0.5532664721
C        2.8667303832   -1.2676085826    6.2912661549
C        1.6518194828    0.1191497109    1.9550143484
C        1.9450255935   -2.2828137358    1.9521296095
C        2.9005042663   -1.2904607791    4.8925173744
C        1.6558378437   -1.0417365249    6.9557740330
C        0.5214065204   -0.8600965257    4.8288795965
C        1.7601612421   -1.0886231026    2.6611787249
C        1.7249479228   -1.0963011851    4.1517417739
C        0.4787521489   -0.8353037756    6.2278145653
Cl      -1.0266962489   -0.5468224226    7.0557075394
H        1.9336268601   -1.0606736252   -1.2303963712
H        1.6236574177    1.0685342592    0.0167287767
H        2.1443095469   -3.2053250075    0.0107167241
H        3.7794912133   -1.4220107083    6.8598276551
H        1.5225139057    1.0494907009    2.5004486189
H        2.0393049489   -3.2191970650    2.4942934518
H        3.8393015724   -1.4573403467    4.3722403086
H        1.6241538819   -1.0222394399    8.0410977802
H       -0.3898107380   -0.6969824938    4.2618174746
22   

C        1.8770476670   -1.0790290924   -0.1465643511
C        1.9016238303    0.1358288202    0.5471119633
C        1.8125644973   -2.2849798662    0.5601396470
C        2.8893632144   -1.0907735930    6.3028693062
C        1.8618624204    0.1430628137    1.9465281020
C        1.7729044789   -2.2749138831    1.9597074119
C        2.9384748042   -1.0969406571    4.9043882578
C        1.6527462394   -1.0437506432    6.9567087084
C        0.5233633318   -1.0093516667    4.8197192326
C        1.7974820640   -1.0625048667    2.6608618016
C        1.7546367197   -1.0562277842    4.1535174278
C        0.4647954335   -1.0028532345    6.2182965149
Cl      -1.0740684952   -0.9443517008    7.0328368215
H        1.9075192228   -1.0859042159   -1.2324888076
H        1.9510866100    1.0734274897    0.0008188249
H        1.7928032125   -3.2292925240    0.0236256757
H        3.8095818347   -1.1224349624    6.8794395492
H        1.8802449068    1.0852815374    2.4865289554
H        1.7222296306   -3.2105621843    2.5090049982
H        3.8954001558   -1.1333551267    4.3916877957
H        1.6087908161   -1.0387554158    8.0417682462
H       -0.3963963247   -0.9776985702    4.2438936621
22   

C        1.8730605365   -1.0909228769   -0.1472287494
C        2.0888738310    0.1088183719    0.5392722618
C        1.6242290514   -2.2680892940    0.5667800945
C        2.8687711725   -0.9165680633    6.3128432146
C        2.0583118205    0.1291716269    1.9387864214
C        1.5942482657   -2.2449034759    1.9663993869
C        2.9311753123   -0.9102793640    4.9149019638
C        1.6320431028   -1.0465397934    6.9548327880
C        0.5293715548   -1.1658416821    4.8070948294
C        1.8187629009   -1.0492129978    2.6618444988
C        1.7598458739   -1.0256666352    4.1515139173
C        0.4575637877   -1.1734170746    6.2050131804
Cl      -1.0810099186   -1.3420722687    7.0046065791
H        1.8957177303   -1.1078762663   -1.2332340563
H        2.2773407213    1.0251454246   -0.0128044072
H        1.4527078506   -3.2001234504    0.0358685389
H        3.7792005524   -0.8234470344    6.8982349372
H        2.2185522267    1.0616524954    2.4721000324
H        1.3980973141   -3.1585063888    2.5201429833
H        3.8896242086   -0.8171913665    4.4123534817
H        1.5778629406   -1.0526423191    8.0394237891
H       -0.3804252798   -1.2668496394    4.2234973968
22   

C        1.8694112861   -1.0924957624   -0.1504247569
C        2.2486351279    0.0630429271    0.5404294258
C        1.4552630183   -2.2245302305    0.5591874584
C        2.8387934780   -0.7581372468    6.3065432322
C        2.2164639975    0.0840298570    1.9398600882
C        1.4237105274   -2.2012898211    1.9587313156
C        2.8980574286   -0.7532402354    4.9084903479
C        1.6299331608   -1.0399254224    6.9522653911
C        0.5484450490   -1.3134650917    4.8079707130
C        1.8127546079   -1.0512419071    2.6610595672
C        1.7496278639   -1.0200745335    4.1461833151
C        0.4805132272   -1.3207031749    6.2060295129
Cl      -1.0228582364   -1.6787170409    7.0102458274
H        1.8933547313   -1.1096985173   -1.2363990820
H        2.5646024735    0.9455711321   -0.0084444440
H        1.1571030634   -3.1220080740    0.0247557287
H        3.7310331676   -0.5472803701    6.8893628107
H        2.5011253626    0.9860694402    2.4734727276
H        1.1014072133   -3.0826221350    2.5055668396
H        3.8385014854   -0.5460187762    4.4061712068
H        1.5786001802   -1.0456870052    8.0369971847
H       -0.3444842492   -1.5315948132    4.2305411473
22   

C        1.8715013621   -1.0859258481   -0.1512536870
C        2.3880127604    0.0067048830    0.5515148896
C        1.3148058733   -2.1618269515    0.5467478119
C        2.8069734313   -0.6236036114    6.3006282450
C        2.3490331427    0.0215750458    1.9508241655
C        1.2761531366   -2.1451615135    1.9461471877
C        2.8568930247   -0.6267729449    4.9022175546
C        1.6425382276   -1.0328745168    6.9583093881
C        0.5855654750   -1.4481456248    4.8249226764
C        1.7967097633   -1.0559966020    2.6642813309
C        1.7438329276   -1.0338390520    4.1472658351
C        0.5277213919   -1.4476967476    6.2233746303
Cl      -0.9228420522   -1.9585079066    7.0420178330
H        1.9012748042   -1.0983076381   -1.2371508998
H        2.8166280007    0.8462413919    0.0116817933
H        0.9133017512   -3.0123571020    0.0032526184
H        3.6731813913   -0.3070602758    6.8748339632
H        2.7412142530    0.8809582945    2.4861590680
H        0.8491926970   -2.9910176727    2.4765653314
H        3.7688374835   -0.3207582349    4.3983248947
H        1.5988186580   -1.0323032902    8.0433900165
H       -0.2880390279   -1.7632521960    4.2634483209
22   

C        1.9240006811   -1.0574228316   -0.1569316506
C        1.4077230956   -2.1643803403    0.5207301224
C        2.3712426251    0.0508009711    0.5661464612
C        0.6237510014   -1.7473951084    6.2200375180
C        1.3402876313   -2.1631384872    1.9190909397
C        2.3038790267    0.0506256796    1.9644160294
C        0.6905682263   -1.7505492517    4.8223177582
C        1.5760801603   -1.0456487705    6.9636233359
C        2.6567443075   -0.3549032180    4.9160461757
C        1.7917720734   -1.0585517889    2.6638525530
C        1.7058053476   -1.0507126246    4.1459949538
C        2.5968409848   -0.3472833585    6.3143275554
Cl       3.7912899840    0.5208852789    7.2390698222
H        1.9761466586   -1.0577136739   -1.2420572949
H        1.0610806347   -3.0289385115   -0.0381411801
H        2.7670853682    0.9163778111    0.0425981717
H       -0.1706361240   -2.2877285724    6.7272244610
H        0.9504757956   -3.0433315592    2.4196607119
H        2.6374074165    0.9341481846    2.4989614049
H       -0.0706766403   -2.2883846439    4.2666365275
H        1.5284378123   -1.0406405091    8.0485330559
H        3.4721090679    0.1759619195    4.4369637793
22   

C        1.9156308739   -1.0542892375   -0.1662578776
C        1.2709729192   -2.0915235849    0.5077695687
C        2.4950597933   -0.0157929939    0.5625102504
C        0.7185246386   -1.8558908199    6.2391497652
C        1.2098223391   -2.0926732371    1.9065387034
C        2.4335884502   -0.0179056148    1.9609020527
C        0.7809404749   -1.8549160517    4.8411146162
C        1.5880799588   -1.0544026860    6.9797538635
C        2.5811414132   -0.2583024550    4.9273786384
C        1.8001875817   -1.0645926496    2.6658985752
C        1.7043515320   -1.0469758786    4.1511526046
C        2.5246973581   -0.2539977222    6.3257395873
Cl       3.6247266615    0.7363883452    7.2451326181
H        1.9627656847   -1.0532207155   -1.2516174293
H        0.8175654276   -2.9025473512   -0.0549560102
H        2.9887004029    0.8006442028    0.0430807536
H       -0.0102988129   -2.4793365545    6.7494625715
H        0.7135452583   -2.9328611474    2.3769513747
H        2.8717405654    0.8285210389    2.4764724730
H        0.0704109020   -2.4803819926    4.3141088484
H        1.5429128565   -1.0524905613    8.0647835053
H        3.3463405117    0.3552194914    4.4682278909
22   

C        1.9066897492   -1.0512420773   -0.1814875732
C        1.1046496660   -1.9741638324    0.4866264855
C        2.6490890081   -0.1307510431    0.5549118146
C        0.8516739693   -1.9949097990    6.2463883592
C        1.0447041234   -1.9772421068    1.8855660477
C        2.5889504992   -0.1340584219    1.9532761384
C        0.9131400034   -1.9899804494    4.8482249835
C        1.5934333751   -1.0745799039    6.9849146954
C        2.4552891052   -0.1477294478    4.9289771232
C        1.7831880809   -1.0595884639    2.6581512216
C        1.7155819753   -1.0676806849    4.1487511403
C        2.3985610242   -0.1469637525    6.3273484413
Cl       3.3294168364    1.0075405195    7.2424802668
H        1.9528253572   -1.0493393463   -1.2668931082
H        0.5232280016   -2.6946606238   -0.0815955102
H        3.2768697382    0.5920529440    0.0415463964
H        0.2237884021   -2.7183099121    6.7590148782
H        0.3992692476   -2.7247019147    2.3263737805
H        3.1928555529    0.6098623144    2.4556234467
H        0.3093224637   -2.7342625292    4.3468612937
H        1.5479747767   -1.0756903528    8.0699381600
H        3.0998821515    0.5991728897    4.4867137654
22   

C        1.9088913093   -1.0314947123   -0.1735911412
C        0.9646808282   -1.8224513319    0.4811014442
C        2.7932749164   -0.2547621657    0.5746729744
C        0.9965262591   -2.1238571577    6.2350906532
C        0.9020282450   -1.8333067174    1.8797617453
C        2.7297282025   -0.2660596448    1.9729335183
C        1.0591569178   -2.1112358131    4.8371189776
C        1.5965071736   -1.1024136733    6.9724761960
C        2.3147992438   -0.0581863172    4.9167780260
C        1.7727584943   -1.0465709340    2.6575503920
C        1.7304121220   -1.0857127287    4.1448657394
C        2.2562173339   -0.0640209936    6.3150446181
Cl       2.9928659103    1.2234318152    7.2293835105
H        1.9577591167   -1.0234227461   -1.2588452704
H        0.2738218092   -2.4296666797   -0.0968290405
H        3.5382928243    0.3546182659    0.0710268279
H        0.4825454749   -2.9319180134    6.7480717265
H        0.1365828461   -2.4511835576    2.3334196152
H        3.4604180407    0.3305786599    2.5061869245
H        0.5938163926   -2.9380281055    4.3139982066
H        1.5498669762   -1.1085162660    8.0574284025
H        2.8100496296    0.7856810686    4.4526733815
22   

C        1.9067424071   -1.0300682022   -0.1593743277
C        0.8725360833   -1.7061699115    0.4920847090
C        2.8818199952   -0.3680819256    0.5902991910
C        1.1245262390   -2.1862752782    6.2345777682
C        0.8132419300   -1.7187954840    1.8907538739
C        2.8211100314   -0.3809018012    1.9888179478
C        1.1819078091   -2.1745217916    4.8364758645
C        1.6113098634   -1.0979220692    6.9631944615
C        2.2089699742    0.0081461259    4.8999768067
C        1.7828766061   -1.0524508686    2.6617666373
C        1.7291517812   -1.0788016672    4.1451978944
C        2.1547360167    0.0039512075    6.2984906016
Cl       2.7538893593    1.3665745707    7.2039519561
H        1.9534552647   -1.0203263095   -1.2447037344
H        0.1111726922   -2.2201869948   -0.0876331753
H        3.6915506034    0.1531107930    0.0875955223
H        0.7046366007   -3.0431313476    6.7539400869
H       -0.0107298026   -2.2374952321    2.3695900835
H        3.6046634073    0.1226140485    2.5456903584
H        0.8135448221   -3.0389461189    4.2936855451
H        1.5685516403   -1.1024611179    8.0483082075
H        2.6144676446    0.8850540820    4.4072667298
22   

C        1.9148139581   -1.0233235857   -0.1566810946
C        0.8042146769   -1.5818529064    0.4829402219
C        2.9589200015   -0.4877552645    0.6033766925
C        1.2366780816   -2.2518683732    6.2268471223
C        0.7396445688   -1.6059214805    1.8811715718
C        2.8925598419   -0.5121756513    2.0016241072
C        1.2895635568   -2.2390873059    4.8286056275
C        1.6090458623   -1.1140092199    6.9497168070
C        2.0867006132    0.0414978425    4.8814641735
C        1.7849248260   -1.0753860717    2.6565474456
C        1.7099504169   -1.0893605757    4.1386937575
C        2.0364553673    0.0366807369    6.2802081375
Cl       2.5013274662    1.4541920999    7.1800912650
H        1.9657567809   -1.0041550673   -1.2416925308
H       -0.0107500796   -1.9942116271   -0.1050614224
H        3.8233183909   -0.0537036393    0.1090002225
H        0.9102289113   -3.1460504621    6.7503917302
H       -0.1334195277   -2.0303845720    2.3675038878
H        3.7141979492   -0.1009840862    2.5803669756
H        1.0120420262   -3.1305849090    4.2741610073
H        1.5698505345   -1.1189199128    8.0349599201
H        2.4111776202    0.9424939178    4.3709250982
22   

C        1.9206702139   -1.0214590202   -0.1551119796
C        0.7461665521   -1.4430589009    0.4766871302
C        3.0222379648   -0.6281545611    0.6119894305
C        1.3713718811   -2.2834178619    6.2362282472
C        0.6758037405   -1.4740365758    1.8745322644
C        2.9496501154   -0.6597707009    2.0098400404
C        1.4162901045   -2.2798422720    4.8376390444
C        1.6161275485   -1.1020053487    6.9447882090
C        1.9521529644    0.0774600464    4.8619053285
C        1.7803512185   -1.0916433592    2.6528279085
C        1.6962753894   -1.0956750306    4.1372228300
C        1.9094734423    0.0825683141    6.2609734793
Cl       2.2213888385    1.5518280881    7.1436104838
H        1.9761687684   -0.9963894431   -1.2397779063
H       -0.1128322134   -1.7429711259   -0.1167164273
H        3.9343164119   -0.2971809772    0.1235714085
H        1.1506306827   -3.2030366785    6.7708369658
H       -0.2409678661   -1.7915236990    2.3625715210
H        3.8074438297   -0.3534388328    2.6014533534
H        1.2378714700   -3.1988158802    4.2868627996
H        1.5831750473   -1.0994131196    8.0302457348
H        2.1799682653    0.9975993502    4.3329706427
22   

C        1.9192515601   -1.0249604543   -0.1524259759
C        0.6987389230   -1.2834559070    0.4806391653
C        3.0676556285   -0.7966671342    0.6134058179
C        1.5297348820   -2.3117809886    6.2465354189
C        0.6289114095   -1.3160455670    1.8785134933
C        2.9950031114   -0.8298694129    2.0112568980
C        1.5732877159   -2.3113380562    4.8478669039
C        1.6226726570   -1.1039197120    6.9472272971
C        1.8045148765    0.0953265944    4.8563787353
C        1.7783251658   -1.0974185842    2.6530004908
C        1.7017855179   -1.1057792903    4.1420287539
C        1.7621385166    0.1042935338    6.2554913758
Cl       1.8846815392    1.6069847792    7.1283624644
H        1.9745821780   -0.9986032716   -1.2370697738
H       -0.1953877965   -1.4561080983   -0.1115533256
H        4.0156961153   -0.5921008990    0.1241755114
H        1.4267054273   -3.2484962251    6.7870782427
H       -0.3197896985   -1.5094572380    2.3706306017
H        3.8862590723   -0.6496450993    2.6053608789
H        1.5090693114   -3.2471148349    4.3001056294
H        1.5900366301   -1.0984918837    8.0326838292
H        1.9153676246    1.0314086852    4.3178800260
22   

C        1.9066782790   -1.0356908987   -0.1520775734
C        0.6687636175   -1.1029635883    0.4965345644
C        3.0863557339   -0.9889247519    0.5989535226
C        1.7064707169   -2.3235023841    6.2452077053
C        0.6122555796   -1.1235409782    1.8952476467
C        3.0269455818   -1.0096380454    1.9976994800
C        1.7616368403   -2.3127821488    4.8469766542
C        1.6219412442   -1.1165076173    6.9487184233
C        1.6479341155    0.1025515412    4.8614924556
C        1.7912002247   -1.0771869095    2.6538733323
C        1.7327031871   -1.0985959668    4.1458371986
C        1.5923063553    0.1013520296    6.2602018738
Cl       1.4870808028    1.6033678359    7.1364862980
H        1.9518028834   -1.0193158349   -1.2373898284
H       -0.2485465883   -1.1387931615   -0.0841815035
H        4.0485166676   -0.9360984641    0.0975347414
H        1.7292481609   -3.2671150883    6.7830871599
H       -0.3479404824   -1.1751178065    2.4002994496
H        3.9421800024   -0.9727442434    2.5814124092
H        1.8273113296   -3.2465225934    4.2958792900
H        1.5788645715   -1.1189558402    8.0338219015
H        1.6251472956    1.0456660981    4.3243209377
22   

C        1.8952364295   -1.0344378980   -0.1523764198
C        0.6718816587   -0.9045912944    0.5139934974
C        3.0785131621   -1.1722061919    0.5815546244
C        1.8839043741   -2.3111932366    6.2347644552
C        0.6335979653   -0.9101546355    1.9134280494
C        3.0377483198   -1.1774098169    1.9811247640
C        1.9557371563   -2.2794311863    4.8376350007
C        1.6203225742   -1.1350756365    6.9461785300
C        1.4988218687    0.0953946031    4.8689439296
C        1.8176335017   -1.0384836922    2.6556548496
C        1.7730643706   -1.0726723899    4.1455982304
C        1.4249490817    0.0724461710    6.2666172926
Cl       1.0895558248    1.5344821137    7.1525980358
H        1.9259921338   -1.0306579888   -1.2383084201
H       -0.2486050839   -0.8017683899   -0.0535577547
H        4.0289889656   -1.2761689015    0.0660532287
H        2.0295999444   -3.2478021784    6.7655874574
H       -0.3165073159   -0.8162928870    2.4313508644
H        3.9559512542   -1.2869090604    2.5508227007
H        2.1520453718   -3.1911142340    4.2807019318
H        1.5627576641   -1.1542752629    8.0304431991
H        1.3443984767    1.0303092108    4.3392566083
22   

C        1.8883828500   -1.0376970978   -0.1529703517
C        0.6997890888   -0.7362194621    0.5200115824
C        3.0439154259   -1.3411560236    0.5746710604
C        2.0399528349   -2.2666775359    6.2409710346
C        0.6688184309   -0.7352966724    1.9196055650
C        3.0108245674   -1.3397536769    1.9744124592
C        2.1151954163   -2.2309898005    4.8441296267
C        1.6241946391   -1.1318998648    6.9462050737
C        1.3576005013    0.0652589927    4.8632906678
C        1.8270618177   -1.0272932529    2.6580241702
C        1.7857186150   -1.0595287318    4.1437948490
C        1.2792665701    0.0377316046    6.2605667993
Cl       0.7536874437    1.4476917053    7.1385363725
H        1.9131523010   -1.0391193209   -1.2390619675
H       -0.2004606256   -0.5062144424   -0.0426951965
H        3.9671769513   -1.5786624650    0.0539762893
H        2.2998630837   -3.1754840879    6.7764608192
H       -0.2585084037   -0.5118626698    2.4390070079
H        3.9096897034   -1.5763117267    2.5361468652
H        2.4256379200   -3.1152302344    4.2950882063
H        1.5631918714   -1.1546501028    8.0302130424
H        1.0886964598    0.9730056815    4.3322492407
22   

C        1.8896611911   -1.0423359958   -0.1568802152
C        0.7456821067   -0.6022910071    0.5155983292
C        2.9934630361   -1.4960540180    0.5714614716
C        2.1733424277   -2.2324638595    6.2549063344
C        0.7071759389   -0.6144591702    1.9149359956
C        2.9531039087   -1.5080005174    1.9708823386
C        2.2346862575   -2.2058628176    4.8571913082
C        1.6387024030   -1.1435469626    6.9508945606
C        1.2273506235   -0.0092901670    4.8568202290
C        1.8123664720   -1.0628142956    2.6584295290
C        1.7677294487   -1.0902956136    4.1416390383
C        1.1625854537   -0.0282529493    6.2548445088
Cl       0.4950881399    1.3279291459    7.1211244830
H        1.9202046008   -1.0329196690   -1.2427859163
H       -0.1153077430   -0.2537772906   -0.0476387387
H        3.8837934513   -1.8378141957    0.0514086566
H        2.5370624100   -3.0998291071    6.7986135678
H       -0.1919278573   -0.2829403658    2.4256452628
H        3.8195430415   -1.8545151727    2.5259702009
H        2.6378730901   -3.0610548378    4.3231127204
H        1.5887069825   -1.1595040379    8.0355880375
H        0.8631059562    0.8642339422    4.3257494302
22   

C        1.8912017608   -1.0397569103   -0.1596786321
C        0.8004866022   -0.4813509457    0.5107396739
C        2.9272464171   -1.6258564704    0.5711042758
C        2.2884850158   -2.1603333466    6.2804746992
C        0.7459671063   -0.5101844849    1.9093087604
C        2.8711016323   -1.6545791409    1.9696347981
C        2.3269167383   -2.1565655716    4.8817038118
C        1.6531986797   -1.1209381313    6.9648801991
C        1.0986376789   -0.0795038187    4.8563782851
C        1.7773603220   -1.1009347000    2.6615884441
C        1.7289932977   -1.1180829508    4.1453811169
C        1.0564487645   -0.0760709506    6.2553312029
Cl       0.2718863451    1.2261958369    7.1063034415
H        1.9342317778   -1.0167423628   -1.2449606041
H       -0.0083656054   -0.0265072959   -0.0539703495
H        3.7804933102   -2.0549566534    0.0536112108
H        2.7496658248   -2.9731098863    6.8345091582
H       -0.1216772519   -0.0839327500    2.4023367640
H        3.7005453685   -2.0959862314    2.5122736307
H        2.8109279320   -2.9834448864    4.3721740665
H        1.6213035538   -1.1193391249    8.0503763450
H        0.6480296066    0.7548899440    4.3302409415
22   

C        1.8980627953   -1.0331182795   -0.1731784503
C        0.8839417048   -0.3551757035    0.5031452053
C        2.8495521734   -1.7490055144    0.5530060264
C        2.4093027876   -2.0737046909    6.2947488941
C        0.8195491796   -0.3959394278    1.9010808049
C        2.7840436423   -1.7892660767    1.9507164270
C        2.4309130914   -2.0844159633    4.8956159343
C        1.6731214186   -1.1039918258    6.9762151074
C        0.9868917999   -0.1583880093    4.8624001455
C        1.7593974203   -1.1220681199    2.6572113154
C        1.7116182910   -1.1353078037    4.1449256150
C        0.9605241565   -0.1411371969    6.2616278909
Cl       0.0522221814    1.0823463513    7.1068198973
H        1.9484038705   -1.0008256429   -1.2579131263
H        0.1398821607    0.2038839006   -0.0571119478
H        3.6478708427   -2.2703232445    0.0325156771
H        2.9640298843   -2.8234062706    6.8519825513
H       -0.0010208810    0.1319883966    2.3722053840
H        3.5657194137   -2.3344313046    2.4659478398
H        3.0013191091   -2.8699843733    4.4143477653
H        1.6540042655   -1.0917497874    8.0619489235
H        0.4427100152    0.6293875006    4.3567419960
22   

C        1.8784171884   -1.0458569739   -0.1862066294
C        1.0060271856   -0.2077082559    0.5047600902
C        2.7142781407   -1.9009918088    0.5282931391
C        2.5507678355   -1.9574362221    6.3014593338
C        0.9693463852   -0.2243208145    1.9043124404
C        2.6769274351   -1.9169263840    1.9274394262
C        2.5905390630   -1.9439128906    4.9026564373
C        1.6757431071   -1.1164500871    6.9865284090
C        0.8840314109   -0.2522162909    4.8756588399
C        1.8012636599   -1.0769674580    2.6562394865
C        1.7601218999   -1.0926428854    4.1478339143
C        0.8386673881   -0.2601985390    6.2744908967
Cl      -0.2587672340    0.7949710621    7.1225291517
H        1.9065146351   -1.0326063530   -1.2721484261
H        0.3512007887    0.4618654172   -0.0456730053
H        3.3973493903   -2.5576184989   -0.0030176275
H        3.2037849936   -2.6253843540    6.8561989454
H        0.2653820440    0.4556820545    2.3649123686
H        3.3550120734   -2.6070209104    2.4112649965
H        3.2944073284   -2.6238054785    4.4415912725
H        1.6420115761   -1.1241000604    8.0719522399
H        0.2064463589    0.4373913800    4.3918091126
