22   

C        1.8654107854   -1.0660918544   -0.1744317593
C        1.1522253784   -0.0843888239    0.5133809805
C        2.5628472849   -2.0384084277    0.5420546783
C        2.6657757632   -1.8148234448    6.3045494080
C        1.1394482465   -0.0730449816    1.9132880421
C        2.5495642237   -2.0259448748    1.9417600718
C        2.7295918291   -1.7829406733    4.9070282501
C        1.6636552722   -1.1135361534    6.9758558876
C        0.7918049770   -0.3553006293    4.8549482543
C        1.8458659547   -1.0347861920    2.6605102600
C        1.8023724922   -1.0437055815    4.1483916348
C        0.7214038698   -0.3824892883    6.2524946616
Cl      -0.5422084446    0.4823618622    7.0841138106
H        1.8746682128   -1.0752749538   -1.2607357334
H        0.6073062938    0.6756744467   -0.0392738625
H        3.1114688394   -2.8117676569    0.0120311073
H        3.3994025093   -2.3839477592    6.8686179458
H        0.5858669465    0.7243770853    2.3946061533
H        3.0826834577   -2.8219948456    2.4475007603
H        3.5384773143   -2.3277995648    4.4348707354
H        1.6101837307   -1.1359647348    8.0602778673
H        0.0182906631    0.2009937975    4.3405298931
22   

C        1.8817457652   -1.0657807429   -0.1571826817
C        1.2826695958   -0.0051058091    0.5261875053
C        2.4482289715   -2.1209312257    0.5616141694
C        2.7324626800   -1.6791318362    6.3070251551
C        1.2513589074    0.0003645067    1.9257567691
C        2.4167680119   -2.1137953388    1.9611916944
C        2.7884021354   -1.6678720082    4.9088814893
C        1.6576280412   -1.0792115960    6.9682458385
C        0.6999762143   -0.4606606086    4.8379388476
C        1.8215456537   -1.0507702391    2.6664203553
C        1.7750222552   -1.0547873246    4.1503950299
C        0.6368226825   -0.4682754362    6.2360808836
Cl      -0.7093881464    0.2722290127    7.0576379163
H        1.9054137840   -1.0707751504   -1.2432910190
H        0.8428507456    0.8184825921   -0.0290447853
H        2.9088347329   -2.9510379144    0.0336700537
H        3.5263903471   -2.1513810135    6.8787829319
H        0.7943963869    0.8456779849    2.4299465563
H        2.8442675330   -2.9573874106    2.4930439219
H        3.6417564982   -2.1249654859    4.4185077488
H        1.6096844198   -1.0859487547    8.0531315088
H       -0.1165354860   -0.0001389542    4.2926730604
22   

C        1.8897177083   -1.0596645328   -0.1503390465
C        1.4065284014    0.0545586322    0.5422180775
C        2.3238480946   -2.1843917672    0.5576543581
C        2.7969500248   -1.5620472440    6.2942062325
C        1.3560480750    0.0424516740    1.9411845361
C        2.2730939815   -2.1946869789    1.9567399218
C        2.8332146591   -1.5736498270    4.8954165028
C        1.6720167362   -1.0636532913    6.9590704351
C        0.6272971815   -0.5893239319    4.8319910387
C        1.7841173881   -1.0842979898    2.6639067469
C        1.7452959146   -1.0927938592    4.1473274417
C        0.5833067258   -0.5743054332    6.2308788982
Cl      -0.8177394459    0.0481647886    7.0584147715
H        1.9289562761   -1.0509022936   -1.2359701042
H        1.0731137862    0.9317401335   -0.0049439830
H        2.6990921372   -3.0516614912    0.0219492663
H        3.6434982460   -1.9361658647    6.8630873319
H        0.9914956397    0.9190073057    2.4683163510
H        2.6050345534   -3.0769839137    2.4955171395
H        3.7160012507   -1.9487907413    4.3863891287
H        1.6391618843   -1.0522492213    8.0444766717
H       -0.2259854298   -0.2151731064    4.2755081331
22   

C        1.8855165306   -1.0596024062   -0.1460417773
C        1.5405719362    0.1011464300    0.5541190566
C        2.1698234369   -2.2372072111    0.5533978229
C        2.8303650484   -1.4267491231    6.2874853138
C        1.4770951358    0.0822081567    1.9524893762
C        2.1058385794   -2.2540338452    1.9519652788
C        2.8579240961   -1.4524009743    4.8886683277
C        1.6604418358   -1.0480187097    6.9551465893
C        0.5543650576   -0.7193772809    4.8311527467
C        1.7495135613   -1.0986058406    2.6620860418
C        1.7150827967   -1.1100584424    4.1483505031
C        0.5185943404   -0.6907297435    6.2301414945
Cl      -0.9352222051   -0.2112143046    7.0617294016
H        1.9354735960   -1.0456392639   -1.2311774646
H        1.3252876995    1.0185049958    0.0136599663
H        2.4409895682   -3.1388848935    0.0117411866
H        3.7173675999   -1.6963662733    6.8538456098
H        1.2199612071    0.9881236012    2.4936314946
H        2.3276671469   -3.1699188517    2.4917897873
H        3.7693699270   -1.7340220217    4.3693824071
H        1.6340815290   -1.0255562373    8.0405557324
H       -0.3318884603   -0.4409186585    4.2696067229
22   

C        1.8867764880   -1.0679385213   -0.1450566500
C        1.7113670976    0.1298656998    0.5563513963
C        2.0049214192   -2.2746438114    0.5532632630
C        2.8667302862   -1.2676090570    6.2912661627
C        1.6518194828    0.1191497109    1.9550143484
C        1.9449606026   -2.2828223491    1.9521275701
C        2.9005042663   -1.2904607791    4.8925173744
C        1.6558376061   -1.0417376635    6.9557740299
C        0.5214062828   -0.8600977004    4.8288795827
C        1.7601612421   -1.0886231026    2.6611787249
C        1.7249479228   -1.0963011851    4.1517417739
C        0.4787518282   -0.8353053425    6.2278145551
Cl      -1.0266967592   -0.5468249805    7.0557075268
H        1.9335374778   -1.0606858442   -1.2303997788
H        1.6236381904    1.0685310059    0.0167274769
H        2.1441798836   -3.2053419387    0.0107120202
H        3.7794911192   -1.4220111449    6.8598276705
H        1.5225408159    1.0494938827    2.5004495764
H        2.0392185001   -3.2192080933    2.4942909754
H        3.8393014899   -1.4573402375    4.3722401266
H        1.6241535800   -1.0222408765    8.0410977806
H       -0.3898109790   -0.6969839638    4.2618173649
22   

C        1.8770478780   -1.0790290961   -0.1465643484
C        1.9016239175    0.1358288174    0.5471119660
C        1.8125647640   -2.2849798718    0.5601396517
C        2.8893632193   -1.0907735636    6.3028693061
C        1.8618624204    0.1430628137    1.9465281020
C        1.7729046600   -2.2749138891    1.9597074157
C        2.9384748042   -1.0969406571    4.9043882578
C        1.6527462450   -1.0437505742    6.9567087096
C        0.5233633324   -1.0093516473    4.8197192343
C        1.7974820640   -1.0625048667    2.6608618016
C        1.7546367197   -1.0562277842    4.1535174278
C        0.4647954377   -1.0028531694    6.2182965167
Cl      -1.0740684877   -0.9443515859    7.0328368290
H        1.9075195165   -1.0859042191   -1.2324888048
H        1.9510866865    1.0734274895    0.0008188328
H        1.7928036071   -3.2292925312    0.0236256812
H        3.8095818447   -1.1224349231    6.8794395437
H        1.8802448215    1.0852815404    2.4865289531
H        1.7222298734   -3.2105621943    2.5090050027
H        3.8954001568   -1.1333551430    4.3916877988
H        1.6087908254   -1.0387553172    8.0417682470
H       -0.3963963254   -0.9776985508    4.2438936655
22   

C        1.8731292340   -1.0909371929   -0.1472265526
C        2.0889017733    0.1088123354    0.5392729665
C        1.6243189365   -2.2681077221    0.5667830827
C        2.8687709405   -0.9165679673    6.3128431988
C        2.0583118205    0.1291716269    1.9387864214
C        1.5943119692   -2.2449165601    1.9664017405
C        2.9311753123   -0.9102793640    4.9149019638
C        1.6320427251   -1.0465396264    6.9548325564
C        0.5293714867   -1.1658416333    4.8070943967
C        1.8187629009   -1.0492129978    2.6618444988
C        1.7598458739   -1.0256666352    4.1515139173
C        0.4575635004   -1.1734169376    6.2050127522
Cl      -1.0810103096   -1.3420721479    7.0046059392
H        1.8958055765   -1.1078946637   -1.2332313962
H        2.2773596182    1.0251408523   -0.0128043642
H        1.4528351572   -3.2001493639    0.0358725832
H        3.7792002208   -0.8234468574    6.8982350623
H        2.2185257615    1.0616575529    2.4720991521
H        1.3981820037   -3.1585233548    2.5201463621
H        3.8896242011   -0.8171912998    4.4123534632
H        1.5778623832   -1.0526420962    8.0394235495
H       -0.3804250710   -1.2668499669    4.2234965981
22   

C        1.8694821133   -1.0925221764   -0.1504217857
C        2.2486638112    0.0630318070    0.5404302574
C        1.4553559494   -2.2245641620    0.5591916695
C        2.8387930781   -0.7581385093    6.3065432139
C        2.2164639975    0.0840298570    1.9398600882
C        1.4237765552   -2.2013137776    1.9587347749
C        2.8980574286   -0.7532402354    4.9084903479
C        1.6299328004   -1.0399285925    6.9522647797
C        0.5484456134   -1.3134683472    4.8079696028
C        1.8127546079   -1.0512419071    2.6610595672
C        1.7496278639   -1.0200745335    4.1461833151
C        0.4805134005   -1.3207075529    6.2060283873
Cl      -1.0228576817   -1.6787244244    7.0102440625
H        1.8934452054   -1.1097324688   -1.2363955586
H        2.5646215956    0.9455627575   -0.0084447060
H        1.1572347127   -3.1220557572    0.0247614369
H        3.7310323633   -0.5472811196    6.8893632214
H        2.5010978861    0.9860787788    2.4734716268
H        1.1014950923   -3.0826528422    2.5055723190
H        3.8385012346   -0.5460174243    4.4061712710
H        1.5785995108   -1.0456910032    8.0369965548
H       -0.3444824293   -1.5315999256    4.2305387621
22   

C        1.8715383420   -1.0859455816   -0.1512517677
C        2.3880276471    0.0066966428    0.5515153912
C        1.3148546146   -2.1618523295    0.5467506353
C        2.8069732795   -0.6236051639    6.3006282506
C        2.3490331427    0.0215750458    1.9508241655
C        1.2761879419   -2.1451793401    1.9461495474
C        2.8568930247   -0.6267729449    4.9022175546
C        1.6425384162   -1.0328782196    6.9583088385
C        0.5855664556   -1.4481490868    4.8249216502
C        1.7967097633   -1.0559966020    2.6642813309
C        1.7438329276   -1.0338390520    4.1472658351
C        0.5277222221   -1.4477016231    6.2233736039
Cl      -0.9228403552   -1.9585161571    7.0420162281
H        1.9013219540   -1.0983329931   -1.2371486374
H        2.8166377363    0.8462353095    0.0116815569
H        0.9133708052   -3.0123927601    0.0032565242
H        3.6731807983   -0.3070613898    6.8748343961
H        2.7411998187    0.8809652452    2.4861585269
H        0.8492391518   -2.9910402547    2.4765695485
H        3.7688370056   -0.3207567304    4.3983249170
H        1.5988187269   -1.0323080328    8.0433894620
H       -0.2880365444   -1.7632573819    4.2634458389
22   

C        1.9239938127   -1.0574195333   -0.1569318469
C        1.4077203279   -2.1643789535    0.5207299823
C        2.3712335525    0.0508051723    0.5661462889
C        0.6237509609   -1.7473947509    6.2200375187
C        1.3402876313   -2.1631384872    1.9190909397
C        2.3038725149    0.0506285849    1.9644159786
C        0.6905682263   -1.7505492517    4.8223177582
C        1.5760799061   -1.0456479068    6.9636231780
C        2.6567438758   -0.3549024423    4.9160458860
C        1.7917720734   -1.0585517889    2.6638525530
C        1.7058053476   -1.0507126246    4.1459949538
C        2.5968405036   -0.3472822419    6.3143272593
Cl       3.7912891033    0.5208871407    7.2390693409
H        1.9761379324   -1.0577094246   -1.2420575811
H        1.0610788307   -3.0289374636   -0.0381413949
H        2.7670725247    0.9163837043    0.0425979473
H       -0.1706360086   -2.2877283276    6.7272245912
H        0.9504784824   -3.0433326583    2.4196608937
H        2.6373986703    0.9341517610    2.4989616716
H       -0.0706764046   -2.2883849729    4.2666365104
H        1.5284375229   -1.0406393910    8.0485328951
H        3.4721082219    0.1759629623    4.4369630389
22   

C        1.9156394103   -1.0542946779   -0.1662576896
C        1.2709762777   -2.0915257944    0.5077697151
C        2.4950712474   -0.0158000643    0.5625103846
C        0.7185244390   -1.8558910391    6.2391497500
C        1.2098223391   -2.0926732371    1.9065387034
C        2.4335967763   -0.0179105614    1.9609020500
C        0.7809404749   -1.8549160517    4.8411146162
C        1.5880795511   -1.0544029794    6.9797540881
C        2.5811411865   -0.2583024539    4.9273790737
C        1.8001875817   -1.0645926496    2.6658985752
C        1.7043515320   -1.0469758786    4.1511526046
C        2.5246969192   -0.2539978799    6.3257400183
Cl       3.6247259696    0.7363882340    7.2451333106
H        1.9627765128   -1.0532276934   -1.2516171431
H        0.8175674394   -2.9025488656   -0.0549557794
H        2.9887167154    0.8006342223    0.0430809315
H       -0.0102990392   -2.4793369158    6.7494623473
H        0.7135417164   -2.9328591970    2.3769510628
H        2.8717521685    0.8285147116    2.4764718674
H        0.0704108812   -2.4803820277    4.3141089596
H        1.5429123029   -1.0524909952    8.0647837240
H        3.3463404061    0.3552198468    4.4682291117
22   

C        1.9066897293   -1.0512420581   -0.1814875740
C        1.1046496662   -1.9741638224    0.4866264873
C        2.6490889684   -0.1307510146    0.5549118172
C        0.8516739383   -1.9949098182    6.2463883543
C        1.0447041234   -1.9772421068    1.8855660477
C        2.5889504692   -0.1340584002    1.9532761418
C        0.9131400034   -1.9899804494    4.8482249835
C        1.5934333424   -1.0745799494    6.9849147148
C        2.4552891259   -0.1477294843    4.9289771508
C        1.7831880809   -1.0595884639    2.6581512216
C        1.7155819753   -1.0676806849    4.1487511403
C        2.3985610236   -0.1469638148    6.3273484753
Cl       3.3294168524    1.0075404036    7.2424803417
H        1.9528253333   -1.0493393282   -1.2668931120
H        0.5232280107   -2.6946606165   -0.0815955062
H        3.2768696758    0.5920529856    0.0415463970
H        0.2237883418   -2.7183099242    6.7590148451
H        0.3992692578   -2.7247019232    2.3263737806
H        3.1928554983    0.6098623503    2.4556234585
H        0.3093224561   -2.7342625176    4.3468612862
H        1.5479747194   -1.0756904134    8.0699381801
H        3.0998822061    0.5991728373    4.4867138119
22   

C        1.9088844578   -1.0314872542   -0.1735915692
C        0.9646780350   -1.8224483813    0.4811013507
C        2.7932659871   -0.2547521514    0.5746722897
C        0.9965260999   -2.1238573881    6.2350906395
C        0.9020282450   -1.8333067174    1.8797617453
C        2.7297218940   -0.2660523119    1.9729329256
C        1.0591569178   -2.1112358131    4.8371189776
C        1.5965069150   -1.1024140725    6.9724764163
C        2.3147992170   -0.0581864881    4.9167784528
C        1.7727584943   -1.0465709340    2.6575503920
C        1.7304121220   -1.0857127287    4.1448657394
C        2.2562171609   -0.0640213749    6.3150450395
Cl       2.9928657265    1.2234312671    7.2293841810
H        1.9577503515   -1.0234133090   -1.2588457689
H        0.2738198951   -2.4296649047   -0.0968289447
H        3.5382802296    0.3546325134    0.0710258464
H        0.4825452540   -2.9319183272    6.7480715182
H        0.1365853975   -2.4511867217    2.3334195500
H        3.4604098169    0.3305889880    2.5061855200
H        0.5938163906   -2.9380281560    4.3139983290
H        1.5498665943   -1.1085168186    8.0574286170
H        2.8100498539    0.7856811206    4.4526745880
22   

C        1.9067469035   -1.0300744960   -0.1593740590
C        0.8725379530   -1.7061724426    0.4920847621
C        2.8818257540   -0.3680902142    0.5902996182
C        1.1245266272   -2.1862752554    6.2345777854
C        0.8132419300   -1.7187954840    1.8907538739
C        2.8211140488   -0.3809077506    1.9888183232
C        1.1819078091   -2.1745217916    4.8364758645
C        1.6113107655   -1.0979221587    6.9631943405
C        2.2089708133    0.0081458361    4.8999765619
C        1.7828766061   -1.0524508686    2.6617666373
C        1.7291517812   -1.0788016672    4.1451978944
C        2.1547371853    0.0039509480    6.2984903671
Cl       2.7538912708    1.3665740707    7.2039515902
H        1.9534610568   -1.0203343319   -1.2447034258
H        0.1111740540   -2.2201886283   -0.0876332508
H        3.6915586899    0.1530990522    0.0875961229
H        0.7046369018   -3.0431312005    6.7539402371
H       -0.0107313886   -2.2374927286    2.3695900897
H        3.6046684722    0.1226060001    2.5456911888
H        0.8135444493   -3.0389459407    4.2936855011
H        1.5685527910   -1.1024612098    8.0483080955
H        2.6144688431    0.8850534071    4.4072660516
22   

C        1.9148340844   -1.0233604410   -0.1566801190
C        0.8042230993   -1.5818677319    0.4829403515
C        2.9589458530   -0.4878038263    0.6033782561
C        1.2366795304   -2.2518681523    6.2268471904
C        0.7396445688   -1.6059214805    1.8811715718
C        2.8925779793   -0.5122103404    2.0016255574
C        1.2895635568   -2.2390873059    4.8286056275
C        1.6090493322   -1.1140092335    6.9497163667
C        2.0867039442    0.0414970086    4.8814632113
C        1.7849248260   -1.0753860717    2.6565474456
C        1.7099504169   -1.0893605757    4.1386937575
C        2.0364599716    0.0366801294    6.2802072236
Cl       2.5013351774    1.4541907939    7.1800898292
H        1.9657826629   -1.0042020736   -1.2416914654
H       -0.0107438300   -1.9942213116   -0.1050618891
H        3.8233547131   -0.0537724270    0.1090023351
H        0.9102299149   -3.1460498205    6.7503922436
H       -0.1334266353   -2.0303701769    2.3675037391
H        3.7142208948   -0.1010304406    2.5803699444
H        1.0120406007   -3.1305844763    4.2741610007
H        1.5698549567   -1.1189197595    8.0349595155
H        2.4111826448    0.9424916946    4.3709226709
22   

C        1.9206972954   -1.0215294170   -0.1551112227
C        0.7461779608   -1.4430873711    0.4766870736
C        3.0222727709   -0.6282470256    0.6119907168
C        1.3713731681   -2.2834174851    6.2362282937
C        0.6758037405   -1.4740365758    1.8745322644
C        2.9496746770   -0.6598364620    2.0098414181
C        1.4162901045   -2.2798422720    4.8376390444
C        1.6161308018   -1.1020049784    6.9447877425
C        1.9521562814    0.0774595558    4.8619043298
C        1.7803512185   -1.0916433592    2.6528279085
C        1.6962753894   -1.0956750306    4.1372228300
C        1.9094779436    0.0825681906    6.2609725275
Cl       2.2213965096    1.5518276024    7.1436090061
H        1.9762035766   -0.9964793079   -1.2397772042
H       -0.1128236051   -1.7429900288   -0.1167172687
H        3.9343653355   -0.2973119525    0.1235729693
H        1.1506314440   -3.2030359340    6.7708374269
H       -0.2409774504   -1.7914964036    2.3625713039
H        3.8074753023   -0.3535264103    2.6014560265
H        1.2378700874   -3.1988156393    4.2868628239
H        1.5831791447   -1.0994124399    8.0302452926
H        2.1799734732    0.9975977028    4.3329684032
22   

C        1.9192664705   -1.0250286154   -0.1524263414
C        0.6987451930   -1.2834835888    0.4806388428
C        3.0676748725   -0.7967564548    0.6134054342
C        1.5297347994   -2.3117807372    6.2465354148
C        0.6289114095   -1.3160455670    1.8785134933
C        2.9950167930   -0.8299328114    2.0112568604
C        1.5732877159   -2.3113380562    4.8478669039
C        1.6226724733   -1.1039192882    6.9472270653
C        1.8045148085    0.0953266963    4.8563782865
C        1.7783251658   -1.0974185842    2.6530004908
C        1.7017855179   -1.1057792903    4.1420287539
C        1.7621383489    0.1042938734    6.2554909349
Cl       1.8846813632    1.6069852526    7.1283617945
H        1.9746013195   -0.9986903571   -1.2370703844
H       -0.1953830870   -1.4561267166   -0.1115539361
H        4.0157231892   -0.5922273896    0.1241747678
H        1.4267053210   -3.2484958803    6.7870783967
H       -0.3197950010   -1.5094309452    2.3706307250
H        3.8862768411   -0.6497294250    2.6053610519
H        1.5090692681   -3.2471148434    4.3001056341
H        1.5900363825   -1.0984912602    8.0326835968
H        1.9153679328    1.0314085268    4.3178791982
22   

C        1.9066783564   -1.0356911610   -0.1520775577
C        0.6687636677   -1.1029637027    0.4965345599
C        3.0863557988   -0.9889250741    0.5989535617
C        1.7064707425   -2.3235023824    6.2452077066
C        0.6122555796   -1.1235409782    1.8952476467
C        3.0269456081   -1.0096382615    1.9976995126
C        1.7616368403   -2.3127821488    4.8469766542
C        1.6219412762   -1.1165076155    6.9487184233
C        1.6479341426    0.1025515433    4.8614924558
C        1.7912002247   -1.0771869095    2.6538733323
C        1.7327031871   -1.0985959668    4.1458371986
C        1.5923063764    0.1013520312    6.2602018736
Cl       1.4870807862    1.6033678398    7.1364862915
H        1.9518029978   -1.0193161807   -1.2373898125
H       -0.2485465205   -1.1387932547   -0.0841815339
H        4.0485167562   -0.9360989271    0.0975348106
H        1.7292481941   -3.2671150857    6.7830871651
H       -0.3479404948   -1.1751177073    2.4002994361
H        3.9421800164   -0.9727445338    2.5814124686
H        1.8273113082   -3.2465225943    4.2958792889
H        1.5788646131   -1.1189558401    8.0338219030
H        1.6251473491    1.0456661010    4.3243209388
22   

C        1.8952450560   -1.0343678042   -0.1523754301
C        0.6718853708   -0.9045627656    0.5139937248
C        3.0785241759   -1.1721144039    0.5815560196
C        1.8839049242   -2.3111930762    6.2347644921
C        0.6335979653   -0.9101546355    1.9134280494
C        3.0377561861   -1.1773446745    1.9811259863
C        1.9557371563   -2.2794311863    4.8376350007
C        1.6203238555   -1.1350752976    6.9461785665
C        1.4988231090    0.0953948823    4.8689439423
C        1.8176335017   -1.0384836922    2.6556548496
C        1.7730643706   -1.0726723899    4.1455982304
C        1.4249507643    0.0724465787    6.2666173237
Cl       1.0895585178    1.5344827445    7.1525980804
H        1.9260032338   -1.0305683915   -1.2383072927
H       -0.2486021097   -0.8017490425   -0.0535579958
H        4.0290043645   -1.2760389324    0.0660550144
H        2.0296004526   -3.2478020028    6.7655875312
H       -0.3165101939   -0.8163198590    2.4313504783
H        3.9559613147   -1.2868224301    2.5508245191
H        2.1520452104   -3.1911141763    4.2807017824
H        1.5627593053   -1.1542748133    8.0304432560
H        1.3444000345    1.0303094881    4.3392565090
22   

C        1.8884033679   -1.0376244656   -0.1529689988
C        0.6997978132   -0.7361900170    0.5200117646
C        3.0439416489   -1.3410607436    0.5746731305
C        2.0399522804   -2.2666778078    6.2409709859
C        0.6688184309   -0.7352966724    1.9196055650
C        3.0108430799   -1.3396859877    1.9744144000
C        2.1151954163   -2.2309898005    4.8441296267
C        1.6241933073   -1.1319003637    6.9462049610
C        1.3575995469    0.0652586645    4.8632905598
C        1.8270618177   -1.0272932529    2.6580241702
C        1.7857186150   -1.0595287318    4.1437948490
C        1.2792650363    0.0377310599    6.2605666634
Cl       0.7536849244    1.4476908171    7.1385361902
H        1.9131787089   -1.0390265629   -1.2390605070
H       -0.2004538536   -0.5061947493   -0.0426958810
H        3.9672137131   -1.5785275076    0.0539789556
H        2.2998628218   -3.1754842866    6.7764607510
H       -0.2585154135   -0.5118907137    2.4390065842
H        3.9097132276   -1.5762217052    2.5361502147
H        2.4256390448   -3.1152294198    4.2950874949
H        1.5631901245   -1.1546507254    8.0302129026
H        1.0886951695    0.9730051624    4.3322489498
22   

C        1.8896776984   -1.0422980540   -0.1568787121
C        0.7456890693   -0.6022757231    0.5155986526
C        2.9934841099   -1.4960040815    0.5714637589
C        2.1733414910   -2.2324644583    6.2549062629
C        0.7071759389   -0.6144591702    1.9149359956
C        2.9531186229   -1.5079649141    1.9708843331
C        2.2346862575   -2.2058628176    4.8571913082
C        1.6387001132   -1.1435481602    6.9508944190
C        1.2273487337   -0.0092910682    4.8568201063
C        1.8123664720   -1.0628142956    2.6584295290
C        1.7677294487   -1.0902956136    4.1416390383
C        1.1625826451   -0.0282543388    6.2548443519
Cl       0.4950835325    1.3279268994    7.1211242831
H        1.9202258485   -1.0328712750   -1.2427841890
H       -0.1153024553   -0.2537672739   -0.0476391187
H        3.8838229948   -1.8377434797    0.0514117900
H        2.5370618800   -3.0998295661    6.7986134492
H       -0.1919335382   -0.2829551296    2.4256448889
H        3.8195613763   -1.8544678062    2.5259739538
H        2.6378745087   -3.0610535885    4.3231117060
H        1.5887040081   -1.1595055577    8.0355878586
H        0.8631033882    0.8642326709    4.3257491350
22   

C        1.8912055464   -1.0397505093   -0.1596781906
C        0.8004881880   -0.4813483883    0.5107397886
C        2.9272512440   -1.6258480113    0.5711049446
C        2.2884846946   -2.1603335773    6.2804746818
C        0.7459671063   -0.5101844849    1.9093087604
C        2.8711049814   -1.6545730518    1.9696353583
C        2.3269167383   -2.1565655716    4.8817038118
C        1.6531979159   -1.1209386068    6.9648801572
C        1.0986370382   -0.0795041985    4.8563782429
C        1.7773603220   -1.1009347000    2.6615884441
C        1.7289932977   -1.1180829508    4.1453811169
C        1.0564478159   -0.0760715214    6.2553311540
Cl       0.2718847544    1.2261948956    7.1063033695
H        1.9342366620   -1.0167341986   -1.2449600800
H       -0.0083644248   -0.0265056654   -0.0539704025
H        3.7805000727   -2.0549446806    0.0536121589
H        2.7496656024   -2.9731100664    6.8345091307
H       -0.1216785686   -0.0839352960    2.4023366666
H        3.7005494901   -2.0959780359    2.5122747640
H        2.8109283019   -2.9834444842    4.3721737213
H        1.6213025599   -1.1193397237    8.0503762955
H        0.6480287752    0.7548894243    4.3302408296
22   

C        1.8980564886   -1.0331264516   -0.1731791936
C        0.8839391089   -0.3551789316    0.5031449954
C        2.8495440245   -1.7490164492    0.5530049114
C        2.4093028357   -2.0737046339    6.2947489021
C        0.8195491796   -0.3959394278    1.9010808049
C        2.7840379435   -1.7892740385    1.9507155141
C        2.4309130914   -2.0844159633    4.8956159343
C        1.6731215780   -1.1039917504    6.9762151679
C        0.9868919727   -0.1583879088    4.8624002438
C        1.7593974203   -1.1220681199    2.6572113154
C        1.7116182910   -1.1353078037    4.1449256150
C        0.9605243766   -0.1411370916    6.2616279823
Cl       0.0522225050    1.0823465067    7.1068200157
H        1.9483957812   -1.0008360120   -1.2579140163
H        0.1398803415    0.2038819580   -0.0571119070
H        3.6478593545   -2.2703388044    0.0325140746
H        2.9640299395   -2.8234062138    6.8519825483
H       -0.0010185914    0.1319918314    2.3722054680
H        3.5657120919   -2.3344424417    2.4659459428
H        3.0013192419   -2.8699845772    4.4143483649
H        1.6540044813   -1.0917497125    8.0619489862
H        0.4427101996    0.6293877262    4.3567423125
22   

C        1.8784171897   -1.0458569548   -0.1862066302
C        1.0060271885   -0.2077082393    0.5047600923
C        2.7142781397   -1.9009917942    0.5282931359
C        2.5507678437   -1.9574361986    6.3014593373
C        0.9693463852   -0.2243208145    1.9043124404
C        2.6769274372   -1.9169263753    1.9274394233
C        2.5905390630   -1.9439128906    4.9026564373
C        1.6757431134   -1.1164500627    6.9865284104
C        0.8840314104   -0.2522162884    4.8756588381
C        1.8012636599   -1.0769674580    2.6562394865
C        1.7601218999   -1.0926428854    4.1478339143
C        0.8386673900   -0.2601985293    6.2744908940
Cl      -0.2587672271    0.7949710785    7.1225291417
H        1.9065146393   -1.0326063250   -1.2721484269
H        0.3512007909    0.4618654434   -0.0456729910
H        3.3973493889   -2.5576184793   -0.0030176348
H        3.2037850050   -2.6253843149    6.8561989585
H        0.2653820431    0.4556820520    2.3649123712
H        3.3550120771   -2.6070209018    2.4112649901
H        3.2944073294   -2.6238054797    4.4415912749
H        1.6420115895   -1.1241000201    8.0719522437
H        0.2064463459    0.4373913731    4.3918091167
