22   

C        1.8654050086   -1.0660963664   -0.1744316217
C        1.1522231251   -0.0843906462    0.5133809774
C        2.5628394561   -2.0384143484    0.5420549540
C        2.6657757057   -1.8148235218    6.3045493934
C        1.1394482465   -0.0730449816    1.9132880421
C        2.5495584582   -2.0259490783    1.9417603510
C        2.7295918291   -1.7829406733    4.9070282501
C        1.6636551279   -1.1135362783    6.9758558211
C        0.7918049548   -0.3553006347    4.8549481676
C        1.8458659547   -1.0347861920    2.6605102600
C        1.8023724922   -1.0437055815    4.1483916348
C        0.7214037617   -0.3824893687    6.2524945668
Cl      -0.5422086174    0.4823617213    7.0841136730
H        1.8746609319   -1.0752806952   -1.2607355973
H        0.6073050172    0.6756732456   -0.0392739756
H        3.1114577143   -2.8117760012    0.0120315109
H        3.3994024423   -2.3839478341    6.8686179399
H        0.5858694140    0.7243787618    2.3946062548
H        3.0826753535   -2.8220002894    2.4475016190
H        3.5384772516   -2.3277993525    4.4348702995
H        1.6101834914   -1.1359649137    8.0602777934
H        0.0182907109    0.2009937529    4.3405296355
22   

C        1.8817569070   -1.0657739278   -0.1571827533
C        1.2826740328   -0.0051029559    0.5261876021
C        2.4482437573   -2.1209225258    0.5616139078
C        2.7324624046   -1.6791322288    6.3070251503
C        1.2513589074    0.0003645067    1.9257567691
C        2.4167786491   -2.1137893139    1.9611913549
C        2.7884021354   -1.6678720082    4.9088814893
C        1.6576274609   -1.0792125747    6.9682458405
C        0.6999757211   -0.4606614777    4.8379388701
C        1.8215456537   -1.0507702391    2.6664203553
C        1.7750222552   -1.0547873246    4.1503950299
C        0.6368219687   -0.4682766776    6.2360808895
Cl      -0.7093893053    0.2722269773    7.0576379057
H        1.9054279517   -1.0707663841   -1.2432910334
H        0.8428535436    0.8184847216   -0.0290444629
H        2.9088556912   -2.9510257099    0.0336696711
H        3.5263901609   -2.1513812287    6.8787829471
H        0.7943919885    0.8456756440    2.4299464613
H        2.8442818733   -2.9573799783    2.4930427717
H        3.6417571030   -2.1249649533    4.4185083858
H        1.6096837014   -1.0859500172    8.0531315022
H       -0.1165362238   -0.0001401582    4.2926731848
22   

C        1.8897636053   -1.0596438799   -0.1503381062
C        1.4065468950    0.0545673465    0.5422188249
C        2.3239085004   -2.1843654067    0.5576551819
C        2.7969494494   -1.5620482114    6.2942062456
C        1.3560480750    0.0424516740    1.9411845361
C        2.2731370811   -2.1946685617    1.9567400489
C        2.8332146591   -1.5736498270    4.8954165028
C        1.6720156363   -1.0636555485    6.9590704748
C        0.6272963675   -0.5893257094    4.8319911105
C        1.7841173881   -1.0842979898    2.6639067469
C        1.7452959146   -1.0927938592    4.1473274417
C        0.5833054776   -0.5743081021    6.2308789523
Cl      -0.8177414344    0.0481604870    7.0584148094
H        1.9290148150   -1.0508757034   -1.2359686574
H        1.0731259177    0.9317467515   -0.0049427162
H        2.6991776811   -3.0516245316    0.0219505381
H        3.6434978026   -1.9361664635    6.8630873963
H        0.9914777883    0.9190002074    2.4683157554
H        2.6050919917   -3.0769608809    2.4955159076
H        3.7160025784   -1.9487892780    4.3863904621
H        1.6391605028   -1.0522521747    8.0444767104
H       -0.2259866394   -0.2151755236    4.2755084132
22   

C        1.8855997913   -1.0595779155   -0.1460387528
C        1.5406056607    0.1011568135    0.5541207152
C        2.1699327090   -2.2371758639    0.5534014264
C        2.8303648950   -1.4267493410    6.2874853280
C        1.4770951358    0.0822081567    1.9524893762
C        2.1059162507   -2.2540116880    1.9519672980
C        2.8579240961   -1.4524009743    4.8886683277
C        1.6604416263   -1.0480192232    6.9551466361
C        0.5543649631   -0.7193775684    4.8311528236
C        1.7495135613   -1.0986058406    2.6620860418
C        1.7150827967   -1.1100584424    4.1483505031
C        0.5185941554   -0.6907302528    6.2301415626
Cl      -0.9352224892   -0.2112150912    7.0617294701
H        1.9355799124   -1.0456077616   -1.2311732881
H        1.3253102167    1.0185129857    0.0136620254
H        2.4411443360   -3.1388409419    0.0117465797
H        3.7173674915   -1.6963662711    6.8538456619
H        1.2199290354    0.9881151933    2.4936302501
H        2.3277705169   -3.1698906069    2.4917915494
H        3.7693706775   -1.7340211381    4.3693832886
H        1.6340812832   -1.0255569137    8.0405557794
H       -0.3318887169   -0.4409191371    4.2696069945
22   

C        1.8868553419   -1.0679278386   -0.1450537725
C        1.7113991566    0.1298702854    0.5563527909
C        2.0050247237   -2.2746301768    0.5532668912
C        2.8667304568   -1.2676081769    6.2912661526
C        1.6518194828    0.1191497109    1.9550143484
C        1.9450339495   -2.2828126319    1.9521298795
C        2.9005042663   -1.2904607791    4.8925173744
C        1.6558380349   -1.0417355024    6.9557740341
C        0.5214067078   -0.8600955522    4.8288796004
C        1.7601612421   -1.0886231026    2.6611787249
C        1.7249479228   -1.0963011851    4.1517417739
C        0.4787524036   -0.8353024198    6.2278145623
Cl      -1.0266958426   -0.5468202067    7.0557075129
H        1.9336382434   -1.0606720937   -1.2303959368
H        1.6236598451    1.0685346537    0.0167289331
H        2.1443261520   -3.2053228654    0.0107173473
H        3.7794912622   -1.4220104547    6.8598276508
H        1.5225104771    1.0494902951    2.5004484977
H        2.0393160651   -3.2191956433    2.4942937896
H        3.8393015152   -1.4573407109    4.3722403220
H        1.6241541268   -1.0222381380    8.0410977790
H       -0.3898105086   -0.6969812036    4.2618175045
22   

C        1.8770476560   -1.0790290890   -0.1465643528
C        1.9016238384    0.1358288219    0.5471119639
C        1.8125644821   -2.2849798644    0.5601396430
C        2.8893632257   -1.0907735550    6.3028693029
C        1.8618624204    0.1430628137    1.9465281020
C        1.7729044760   -2.2749138815    1.9597074088
C        2.9384748042   -1.0969406571    4.9043882578
C        1.6527462544   -1.0437505871    6.9567087090
C        0.5233633371   -1.0093516255    4.8197192341
C        1.7974820640   -1.0625048667    2.6608618016
C        1.7546367197   -1.0562277842    4.1535174278
C        0.4647954467   -1.0028531736    6.2182965163
Cl      -1.0740684783   -0.9443516096    7.0328368239
H        1.9075192193   -1.0859042111   -1.2324888086
H        1.9510866583    1.0734274912    0.0008188284
H        1.7928031934   -3.2292925216    0.0236256706
H        3.8095818542   -1.1224348947    6.8794395333
H        1.8802449198    1.0852815366    2.4865289564
H        1.7222296369   -3.2105621830    2.5090049940
H        3.8954001526   -1.1333551391    4.3916877907
H        1.6087908417   -1.0387553484    8.0417682470
H       -0.3963963171   -0.9776984939    4.2438936611
22   

C        1.8730518159   -1.0909210253   -0.1472290386
C        2.0888702947    0.1088191592    0.5392721753
C        1.6242175953   -2.2680869189    0.5667796929
C        2.8687712463   -0.9165684086    6.3128432200
C        2.0583118205    0.1291716269    1.9387864214
C        1.5942401152   -2.2449017944    1.9663990678
C        2.9311753123   -0.9102793640    4.9149019638
C        1.6320432534   -1.0465406366    6.9548328349
C        0.5293716539   -1.1658424655    4.8070948969
C        1.8187629009   -1.0492129978    2.6618444988
C        1.7598458739   -1.0256666352    4.1515139173
C        0.4575639580   -1.1734181840    6.2050132505
Cl      -1.0810096470   -1.3420741215    7.0046066808
H        1.8957066011   -1.1078738838   -1.2332344044
H        2.2773383548    1.0251460337   -0.0128043915
H        1.4526916193   -3.2001201140    0.0358679908
H        3.7792006326   -0.8234472815    6.8982349173
H        2.2185555994    1.0616518465    2.4721001519
H        1.3980864594   -3.1585042152    2.5201425199
H        3.8896241781   -0.8171910602    4.4123534825
H        1.5778631414   -1.0526433967    8.0394238391
H       -0.3804251930   -1.2668506356    4.2234975190
22   

C        1.8694006836   -1.0924917513   -0.1504252222
C        2.2486308501    0.0630446199    0.5404293063
C        1.4552490859   -2.2245250961    0.5591867876
C        2.8387935668   -0.7581374165    6.3065432410
C        2.2164639975    0.0840298570    1.9398600882
C        1.4237006372   -2.2012862177    1.9587307599
C        2.8980574286   -0.7532402354    4.9084903479
C        1.6299333415   -1.0399258146    6.9522654653
C        0.5484451578   -1.3134654500    4.8079708525
C        1.8127546079   -1.0512419071    2.6610595672
C        1.7496278639   -1.0200745335    4.1461833151
C        0.4805134164   -1.3207036734    6.2060296431
Cl      -1.0228579694   -1.6787178005    7.0102459935
H        1.8933412103   -1.1096933571   -1.2363996304
H        2.5645996412    0.9455724255   -0.0084443714
H        1.1570833413   -3.1220008680    0.0247548090
H        3.7310332639   -0.5472805050    6.8893627905
H        2.5011294630    0.9860680403    2.4734729020
H        1.1013940746   -3.0826175521    2.5055659443
H        3.8385014582   -0.5460186342    4.4061712185
H        1.5786004220   -1.0456875008    8.0369972590
H       -0.3444842381   -1.5315951933    4.2305414520
22   

C        1.8714934384   -1.0859215994   -0.1512541069
C        2.3880095676    0.0067066654    0.5515147830
C        1.3147954310   -2.1618214966    0.5467471874
C        2.8069735972   -0.6236035915    6.3006282466
C        2.3490331427    0.0215750458    1.9508241655
C        1.2761456855   -2.1451576935    1.9461466632
C        2.8568930247   -0.6267729449    4.9022175546
C        1.6425385177   -1.0328745434    6.9583095330
C        0.5855655316   -1.4481455783    4.8249229382
C        1.7967097633   -1.0559966020    2.6642813309
C        1.7438329276   -1.0338390520    4.1472658351
C        0.5277216247   -1.4476967646    6.2233748986
Cl      -0.9228417182   -1.9585079787    7.0420182578
H        1.9012647061   -1.0983021832   -1.2371513916
H        2.8166259004    0.8462427233    0.0116818567
H        0.9132869557   -3.0123494392    0.0032517554
H        3.6731816141   -0.3070602199    6.8748338583
H        2.7412173437    0.8809568100    2.4861591771
H        0.8491827636   -2.9910128612    2.4765643722
H        3.7688374811   -0.3207582413    4.3983248932
H        1.5988190795   -1.0323033353    8.0433901650
H       -0.2880392172   -1.7632520326    4.2634489243
22   

C        1.9240057357   -1.0574252671   -0.1569315172
C        1.4077251278   -2.1643813641    0.5207302226
C        2.3712492819    0.0507978806    0.5661465753
C        0.6237509480   -1.7473953211    6.2200375121
C        1.3402876313   -2.1631384872    1.9190909397
C        2.3038838076    0.0506235428    1.9644160535
C        0.6905682263   -1.7505492517    4.8223177582
C        1.5760801065   -1.0456491732    6.9636234647
C        2.6567443749   -0.3549034667    4.9160464184
C        1.7917720734   -1.0585517889    2.6638525530
C        1.7058053476   -1.0507126246    4.1459949538
C        2.5968409956   -0.3472837846    6.3143278010
Cl       3.7912900621    0.5208845966    7.2390702254
H        1.9761531264   -1.0577168270   -1.2420570941
H        1.0610819788   -3.0289392989   -0.0381410180
H        2.7670947852    0.9163734869    0.0425983345
H       -0.1706362331   -2.2877288122    6.7272243434
H        0.9504738299   -3.0433307519    2.4196605838
H        2.6374138386    0.9341455721    2.4989611640
H       -0.0706767392   -2.2883845013    4.2666365354
H        1.5284377216   -1.0406410607    8.0485331842
H        3.4721093661    0.1759616235    4.4369644008
22   

C        1.9156331049   -1.0542906332   -0.1662578177
C        1.2709737899   -2.0915241433    0.5077696066
C        2.4950627845   -0.0157948179    0.5625103016
C        0.7185245630   -1.8558908523    6.2391497602
C        1.2098223391   -2.0926732371    1.9065387034
C        2.4335906098   -0.0179068929    1.9609020637
C        0.7809404749   -1.8549160517    4.8411146162
C        1.5880798465   -1.0544027568    6.9797539203
C        2.5811413835   -0.2583024900    4.9273787524
C        1.8001875817   -1.0645926496    2.6658985752
C        1.7043515320   -1.0469758786    4.1511526046
C        2.5246972730   -0.2539977952    6.3257396990
Cl       3.6247265372    0.7363882582    7.2451327952
H        1.9627685236   -1.0532225015   -1.2516173417
H        0.8175659396   -2.9025477200   -0.0549559566
H        2.9887046711    0.8006416251    0.0430808327
H       -0.0102989354   -2.4793365821    6.7494625097
H        0.7135443473   -2.9328606482    2.3769512908
H        2.8717435598    0.8285194047    2.4764723351
H        0.0704108750   -2.4803819746    4.3141088736
H        1.5429126894   -1.0524906486    8.0647835594
H        3.3463405272    0.3552195315    4.4682282080
22   

C        1.9066897850   -1.0512420800   -0.1814875677
C        1.1046496882   -1.9741638320    0.4866264829
C        2.6490890323   -0.1307510416    0.5549118256
C        0.8516739666   -1.9949098009    6.2463883575
C        1.0447041234   -1.9772421068    1.8855660477
C        2.5889505044   -0.1340584194    1.9532761469
C        0.9131400034   -1.9899804494    4.8482249835
C        1.5934333894   -1.0745799231    6.9849146969
C        2.4552891308   -0.1477294749    4.9289771271
C        1.7831880809   -1.0595884639    2.6581512216
C        1.7155819753   -1.0676806849    4.1487511403
C        2.3985610555   -0.1469637880    6.3273484432
Cl       3.3294168909    1.0075404617    7.2424802674
H        1.9528254142   -1.0493393503   -1.2668931028
H        0.5232280319   -2.6946606207   -0.0815955241
H        3.2768697686    0.5920529477    0.0415464187
H        0.2237883863   -2.7183099020    6.7590148711
H        0.3992692378   -2.7247019119    2.3263737719
H        3.1928555504    0.6098623222    2.4556234580
H        0.3093224487   -2.7342625175    4.3468612938
H        1.5479747882   -1.0756903745    8.0699381614
H        3.0998822073    0.5991728408    4.4867137746
22   

C        1.9088894663   -1.0314926962   -0.1735912586
C        0.9646800783   -1.8224505264    0.4811014185
C        2.7932725132   -0.2547594660    0.5746727893
C        0.9965262765   -2.1238572538    6.2350906510
C        0.9020282450   -1.8333067174    1.8797617453
C        2.7297265088   -0.2660576771    1.9729333567
C        1.0591569178   -2.1112358131    4.8371189776
C        1.5965072167   -1.1024138501    6.9724762595
C        2.3147992874   -0.0581863976    4.9167781469
C        1.7727584943   -1.0465709340    2.6575503920
C        1.7304121220   -1.0857127287    4.1448657394
C        2.2562174086   -0.0640211721    6.3150447396
Cl       2.9928661278    1.2234315050    7.2293837038
H        1.9577567623   -1.0234201958   -1.2588454068
H        0.2738212915   -2.4296661782   -0.0968290201
H        3.5382894265    0.3546221137    0.0710265656
H        0.4825454950   -2.9319181425    6.7480716738
H        0.1365835293   -2.4511844078    2.3334195935
H        3.4604158219    0.3305814533    2.5061865332
H        0.5938163675   -2.9380281053    4.3139982399
H        1.5498670375   -1.1085165179    8.0574284662
H        2.8100497644    0.7856810349    4.4526737209
22   

C        1.9067393114   -1.0300638114   -0.1593745081
C        0.8725348289   -1.7061681802    0.4920846677
C        2.8818159251   -0.3680760158    0.5902989054
C        1.1245261089   -2.1862753472    6.2345777624
C        0.8132419300   -1.7187954840    1.8907538739
C        2.8211071502   -0.3808975160    1.9888176930
C        1.1819078091   -2.1745217916    4.8364758645
C        1.6113095868   -1.0979221590    6.9631945503
C        2.2089697068    0.0081461778    4.8999769959
C        1.7828766061   -1.0524508686    2.6617666373
C        1.7291517812   -1.0788016672    4.1451978944
C        2.1547356568    0.0039511876    6.2984907818
Cl       2.7538887757    1.3665745920    7.2039522317
H        1.9534513420   -1.0203207752   -1.2447039392
H        0.1111718459   -2.2201859489   -0.0876331450
H        3.6915448743    0.1531191715    0.0875951256
H        0.7046364879   -3.0431314657    6.7539400119
H       -0.0107287042   -2.2374969794    2.3695900635
H        3.6046597784    0.1226198371    2.5456897746
H        0.8135449328   -3.0389461798    4.2936855774
H        1.5685512962   -1.1024612721    8.0483082918
H        2.6144672110    0.8850543747    4.4072672452
22   

C        1.9148095698   -1.0233156838   -0.1566813332
C        0.8042128172   -1.5818497252    0.4829401956
C        2.9589144067   -0.4877448594    0.6033763068
C        1.2366780110   -2.2518685262    6.2268471167
C        0.7396445688   -1.6059214805    1.8811715718
C        2.8925559445   -0.5121682251    2.0016237543
C        1.2895635568   -2.2390873059    4.8286056275
C        1.6090456174   -1.1140094238    6.9497169312
C        2.0867003402    0.0414978551    4.8814644150
C        1.7849248260   -1.0753860717    2.6565474456
C        1.7099504169   -1.0893605757    4.1386937575
C        2.0364549780    0.0366806318    6.2802083745
Cl       2.5013267192    1.4541920301    7.1800916338
H        1.9657511269   -1.0041449905   -1.2416927915
H       -0.0107515118   -1.9942095379   -0.1050612790
H        3.8233105381   -0.0536888992    0.1089996903
H        0.9102289250   -3.1460507096    6.7503916197
H       -0.1334179944   -2.0303876569    2.3675039373
H        3.7141930567   -0.1009741762    2.5803662585
H        1.0120421335   -3.1305849337    4.2741609991
H        1.5698502332   -1.1189202278    8.0349600418
H        2.4111771122    0.9424941995    4.3709256837
22   

C        1.9206661631   -1.0214484690   -0.1551120931
C        0.7461648512   -1.4430546427    0.4766871391
C        3.0222327525   -0.6281406909    0.6119892406
C        1.3713719621   -2.2834180146    6.2362282466
C        0.6758037405   -1.4740365758    1.8745322644
C        2.9496464339   -0.6597608396    2.0098398344
C        1.4162901045   -2.2798422720    4.8376390444
C        1.6161278169   -1.1020056217    6.9447883173
C        1.9521533012    0.0774599105    4.8619055345
C        1.7803512185   -1.0916433592    2.6528279085
C        1.6962753894   -1.0956750306    4.1372228300
C        1.9094738879    0.0825680377    6.2609736866
Cl       2.2213896212    1.5518276674    7.1436108151
H        1.9761635602   -0.9963759700   -1.2397780108
H       -0.1128334949   -1.7429683070   -0.1167162973
H        3.9343090897   -0.2971613362    0.1235711888
H        1.1506306823   -3.2030368600    6.7708368817
H       -0.2409664268   -1.7915277995    2.3625715521
H        3.8074391199   -0.3534257237    2.6014529545
H        1.2378713615   -3.1988158441    4.2868627781
H        1.5831753363   -1.0994134914    8.0302458411
H        2.1799686340    0.9975993334    4.3329710757
22   

C        1.9192495692   -1.0249514404   -0.1524259349
C        0.6987380777   -1.2834522256    0.4806392106
C        3.0676530820   -0.7966553893    0.6134058532
C        1.5297352502   -2.3117810395    6.2465354348
C        0.6289114095   -1.3160455670    1.8785134933
C        2.9950013156   -0.8298611135    2.0112568891
C        1.5732877159   -2.3113380562    4.8478669039
C        1.6226735911   -1.1039198330    6.9472273573
C        1.8045157296    0.0953265008    4.8563788126
C        1.7783251658   -1.0974185842    2.6530004908
C        1.7017855179   -1.1057792903    4.1420287539
C        1.7621397589    0.1042933889    6.2554914619
Cl       1.8846836480    1.6069845419    7.1283625880
H        1.9745796105   -0.9985917250   -1.2370697003
H       -0.1953884505   -1.4561055819   -0.1115532270
H        4.0156925314   -0.5920842543    0.1241755856
H        1.4267056715   -3.2484962714    6.7870782423
H       -0.3197889971   -1.5094607108    2.3706305871
H        3.8862567479   -0.6496340541    2.6053608287
H        1.5090689637   -3.2471148108    4.3001056311
H        1.5900378198   -1.0984920496    8.0326838983
H        1.9153687082    1.0314085945    4.3178801490
22   

C        1.9066783644   -1.0356909077   -0.1520775445
C        0.6687636745   -1.1029635923    0.4965345600
C        3.0863558005   -0.9889247543    0.5989535786
C        1.7064707387   -2.3235023836    6.2452077075
C        0.6122555796   -1.1235409782    1.8952476467
C        3.0269456009   -1.0096380388    1.9976995253
C        1.7616368403   -2.3127821488    4.8469766542
C        1.6219412433   -1.1165076155    6.9487184203
C        1.6479341376    0.1025515398    4.8614924592
C        1.7912002247   -1.0771869095    2.6538733323
C        1.7327031871   -1.0985959668    4.1458371986
C        1.5923063512    0.1013520316    6.2602018735
Cl       1.4870807634    1.6033678426    7.1364862928
H        1.9518030133   -1.0193158515   -1.2373897971
H       -0.2485465071   -1.1387931655   -0.0841815448
H        4.0485167577   -0.9360984703    0.0975348391
H        1.7292482106   -3.2671150842    6.7830871696
H       -0.3479404929   -1.1751178030    2.4002994298
H        3.9421799985   -0.9727442313    2.5814124901
H        1.8273113295   -3.2465225933    4.2958792898
H        1.5788645599   -1.1189558414    8.0338218979
H        1.6251473463    1.0456660976    4.3243209436
22   

C        1.8952353229   -1.0344468259   -0.1523765520
C        0.6718811830   -0.9045949081    0.5139934681
C        3.0785117478   -1.1722179373    0.5815544381
C        1.8839040035   -2.3111932944    6.2347644344
C        0.6335979653   -0.9101546355    1.9134280494
C        3.0377473076   -1.1774181816    1.9811246024
C        1.9557371563   -2.2794311863    4.8376350007
C        1.6203215619   -1.1350758172    6.9461784714
C        1.4988208937    0.0953944110    4.8689438723
C        1.8176335017   -1.0384836922    2.6556548496
C        1.7730643706   -1.0726723899    4.1455982304
C        1.4249476938    0.0724459102    6.2666172084
Cl       1.0895534588    1.5344816710    7.1525978798
H        1.9259907060   -1.0306693710   -1.2383085700
H       -0.2486054624   -0.8017707847   -0.0535577203
H        4.0289869873   -1.2761855446    0.0660529895
H        2.0295997630   -3.2478021931    6.7655874568
H       -0.3165069485   -0.8162894414    2.4313509132
H        3.9559499570   -1.2869202068    2.5508224625
H        2.1520457313   -3.1911141827    4.2807019745
H        1.5627563772   -1.1542754844    8.0304431242
H        1.3443971934    1.0303089609    4.3392565407
22   

C        1.8883797710   -1.0377079788   -0.1529705547
C        0.6997877776   -0.7362238761    0.5200115553
C        3.0439114906   -1.3411703050    0.5746707484
C        2.0399526158   -2.2666776222    6.2409710209
C        0.6688184309   -0.7352966724    1.9196055650
C        3.0108217869   -1.3397638362    1.9744121667
C        2.1151954163   -2.2309898005    4.8441296267
C        1.6241940391   -1.1319000956    6.9462050569
C        1.3575998818    0.0652587692    4.8632906655
C        1.8270618177   -1.0272932529    2.6580241702
C        1.7857186150   -1.0595287318    4.1437948490
C        1.2792657291    0.0377312950    6.2605667822
Cl       0.7536860397    1.4476911969    7.1385363381
H        1.9131483342   -1.0391332308   -1.2390621869
H       -0.2004616505   -0.5062174190   -0.0426950933
H        3.9671714353   -1.5786826947    0.0539758885
H        2.2998629694   -3.1754841464    6.7764608008
H       -0.2585073548   -0.5118584705    2.4390070695
H        3.9096861714   -1.5763252393    2.5361463585
H        2.4256380715   -3.1152302451    4.2950883148
H        1.5631911142   -1.1546504048    8.0302130146
H        1.0886956436    0.9730054162    4.3322492724
22   

C        1.8896575503   -1.0423443144   -0.1568805522
C        0.7456805572   -0.6022943816    0.5155982578
C        2.9934584209   -1.4960649120    0.5714609574
C        2.1733424367   -2.2324638305    6.2549063406
C        0.7071759389   -0.6144591702    1.9149359956
C        2.9531007064   -1.5080082520    1.9708818913
C        2.2346862575   -2.2058628176    4.8571913082
C        1.6387023706   -1.1435469605    6.9508945720
C        1.2273505239   -0.0092902119    4.8568202445
C        1.8123664720   -1.0628142956    2.6584295290
C        1.7677294487   -1.0902956136    4.1416390383
C        1.1625853466   -0.0282529905    6.2548445198
Cl       0.4950879483    1.3279290715    7.1211244852
H        1.9201999034   -1.0329302986   -1.2427863033
H       -0.1153089457   -0.2537795501   -0.0476386522
H        3.8837869776   -1.8378296333    0.0514079455
H        2.5370624370   -3.0998290625    6.7986135869
H       -0.1919266290   -0.2829371668    2.4256453377
H        3.8195390659   -1.8545254480    2.5259693606
H        2.6378729961   -3.0610550109    4.3231129459
H        1.5887069588   -1.1595040336    8.0355880483
H        0.8631058315    0.8642339115    4.3257494945
22   

C        1.8911989219   -1.0397616681   -0.1596789651
C        0.8004854031   -0.4813528595    0.5107395922
C        2.9272428054   -1.6258627691    0.5711037695
C        2.2884849820   -2.1603333280    6.2804747012
C        0.7459671063   -0.5101844849    1.9093087604
C        2.8710991390   -1.6545836602    1.9696343730
C        2.3269167383   -2.1565655716    4.8817038118
C        1.6531986902   -1.1209380945    6.9648802047
C        1.0986377925   -0.0795037487    4.8563783027
C        1.7773603220   -1.1009347000    2.6615884441
C        1.7289932977   -1.1180829508    4.1453811169
C        1.0564488587   -0.0760708776    6.2553312141
Cl       0.2718864910    1.2261959456    7.1063034465
H        1.9342281206   -1.0167484033   -1.2449609948
H       -0.0083665182   -0.0265085395   -0.0539703018
H        3.7804882456   -2.0549655792    0.0536104892
H        2.7496657098   -2.9731099073    6.8345091667
H       -0.1216762973   -0.0839308881    2.4023368179
H        3.7005423237   -2.0959922773    2.5122727794
H        2.8109278388   -2.9834450840    4.3721743326
H        1.6213035305   -1.1193391041    8.0503763489
H        0.6480298128    0.7548900919    4.3302410152
22   

C        1.8980612223   -1.0331203048   -0.1731786396
C        0.8839410685   -0.3551764870    0.5031451540
C        2.8495501082   -1.7490082755    0.5530057385
C        2.4093027655   -2.0737047078    6.2947488972
C        0.8195491796   -0.3959394278    1.9010808049
C        2.7840421846   -1.7892681090    1.9507161897
C        2.4309130914   -2.0844159633    4.8956159343
C        1.6731214194   -1.1039918482    6.9762151291
C        0.9868918789   -0.1583879601    4.8624001760
C        1.7593974203   -1.1220681199    2.6572113154
C        1.7116182910   -1.1353078037    4.1449256150
C        0.9605242311   -0.1411371678    6.2616279224
Cl       0.0522223314    1.0823464200    7.1068199465
H        1.9484018648   -1.0008282022   -1.2579133517
H        0.1398817355    0.2038834597   -0.0571119345
H        3.6478679228   -2.2703271839    0.0325152613
H        2.9640298446   -2.8234063013    6.8519825524
H       -0.0010202981    0.1319892586    2.3722054199
H        3.5657175305   -2.3344341650    2.4659473487
H        3.0013191428   -2.8699844214    4.4143479123
H        1.6540042343   -1.0917498480    8.0619489472
H        0.4427101348    0.6293876072    4.3567420807
22   

C        1.8784171870   -1.0458569780   -0.1862066290
C        1.0060271857   -0.2077082585    0.5047600906
C        2.7142781383   -1.9009918120    0.5282931418
C        2.5507678328   -1.9574362222    6.3014593337
C        0.9693463852   -0.2243208145    1.9043124404
C        2.6769274345   -1.9169263857    1.9274394281
C        2.5905390630   -1.9439128906    4.9026564373
C        1.6757431043   -1.1164500895    6.9865284111
C        0.8840314114   -0.2522162917    4.8756588416
C        1.8012636599   -1.0769674580    2.6562394865
C        1.7601218999   -1.0926428854    4.1478339143
C        0.8386673870   -0.2601985416    6.2744908988
Cl      -0.2587672378    0.7949710547    7.1225291558
H        1.9065146326   -1.0326063596   -1.2721484264
H        0.3512007886    0.4618654162   -0.0456730028
H        3.3973493865   -2.5576185043   -0.0030176245
H        3.2037849906   -2.6253843523    6.8561989458
H        0.2653820457    0.4556820536    2.3649123729
H        3.3550120736   -2.6070209111    2.4112650000
H        3.2944073284   -2.6238054780    4.4415912717
H        1.6420115724   -1.1241000665    8.0719522421
H        0.2064463628    0.4373913819    4.3918091156
