22   

C        1.8654145330   -1.0660889245   -0.1744318434
C        1.1522268577   -0.0843876246    0.5133809841
C        2.5628523041   -2.0384046270    0.5420545120
C        2.6657757148   -1.8148234808    6.3045494076
C        1.1394482465   -0.0730449816    1.9132880421
C        2.5495678778   -2.0259422129    1.9417599024
C        2.7295918291   -1.7829406733    4.9070282501
C        1.6636551831   -1.1135362738    6.9758558976
C        0.7918048708   -0.3553007907    4.8549482818
C        1.8458659547   -1.0347861920    2.6605102600
C        1.8023724922   -1.0437055815    4.1483916348
C        0.7214037476   -0.3824894698    6.2524946801
Cl      -0.5422086302    0.4823615869    7.0841138318
H        1.8746729764   -1.0752711877   -1.2607358165
H        0.6073071961    0.6756752843   -0.0392737895
H        3.1114759983   -2.8117622883    0.0120308666
H        3.3994024794   -2.3839477655    6.8686179494
H        0.5858653796    0.7243760185    2.3946060951
H        3.0826885814   -2.8219914039    2.4475002317
H        3.5384774242   -2.3277996040    4.4348710198
H        1.6101836227   -1.1359648815    8.0602778744
H        0.0182904758    0.2009935792    4.3405299974
22   

C        1.8817491751   -1.0657786669   -0.1571826996
C        1.2826709514   -0.0051049461    0.5261875349
C        2.4482335312   -2.1209285505    0.5616140955
C        2.7324626208   -1.6791319253    6.3070251555
C        1.2513589074    0.0003645067    1.9257567691
C        2.4167712969   -2.1137934780    1.9611915943
C        2.7884021354   -1.6678720082    4.9088814893
C        1.6576279036   -1.0792118371    6.9682458434
C        0.6999760781   -0.4606608561    4.8379388583
C        1.8215456537   -1.0507702391    2.6664203553
C        1.7750222552   -1.0547873246    4.1503950299
C        0.6368224989   -0.4682757683    6.2360808901
Cl      -0.7093884407    0.2722284744    7.0576379260
H        1.9054180990   -1.0707724940   -1.2432910199
H        0.8428516003    0.8184832287   -0.0290446927
H        2.9088412130   -2.9510341515    0.0336699479
H        3.5263903247   -2.1513810332    6.8787829352
H        0.7943950723    0.8456772838    2.4299465305
H        2.8442719637   -2.9573851097    2.4930435764
H        3.6417566855   -2.1249653196    4.4185079448
H        1.6096842653   -1.0859490396    8.0531315124
H       -0.1165357122   -0.0001393350    4.2926730980
22   

C        1.8897182257   -1.0596642552   -0.1503390508
C        1.4065286168    0.0545587620    0.5422180898
C        2.3238487488   -2.1843914449    0.5576543375
C        2.7969500152   -1.5620472333    6.2942062372
C        1.3560480750    0.0424516740    1.9411845361
C        2.2730944437   -2.1946867680    1.9567398968
C        2.8332146591   -1.5736498270    4.8954165028
C        1.6720167133   -1.0636532959    6.9590704324
C        0.6272971476   -0.5893239975    4.8319910304
C        1.7841173881   -1.0842979898    2.6639067469
C        1.7452959146   -1.0927938592    4.1473274417
C        0.5833066818   -0.5743054964    6.2308788865
Cl      -0.8177395197    0.0481646887    7.0584147369
H        1.9289569423   -1.0509019297   -1.2359701019
H        1.0731139282    0.9317402533   -0.0049439418
H        2.6990930588   -3.0516610424    0.0219492303
H        3.6434982401   -1.9361658270    6.8630873519
H        0.9914954414    0.9190072191    2.4683163575
H        2.6050351807   -3.0769836638    2.4955170737
H        3.7160012687   -1.9487907242    4.3863891485
H        1.6391618678   -1.0522491834    8.0444766700
H       -0.2259854827   -0.2151732148    4.2755081235
22   

C        1.8855126718   -1.0596035014   -0.1460419268
C        1.5405703794    0.1011459807    0.5541189821
C        2.1698183814   -2.2372086309    0.5533976370
C        2.8303650559   -1.4267490769    6.2874853138
C        1.4770951358    0.0822081567    1.9524893762
C        2.1058349875   -2.2540348628    1.9519651702
C        2.8579240961   -1.4524009743    4.8886683277
C        1.6604418458   -1.0480186253    6.9551465804
C        0.5543650572   -0.7193772730    4.8311527338
C        1.7495135613   -1.0986058406    2.6620860418
C        1.7150827967   -1.1100584424    4.1483505031
C        0.5185943479   -0.6907296764    6.2301414793
Cl      -0.9352221892   -0.2112141898    7.0617293763
H        1.9354686514   -1.0456406677   -1.2311776681
H        1.3252866770    1.0185046748    0.0136598911
H        2.4409824039   -3.1388868866    0.0117408998
H        3.7173676038   -1.6963662256    6.8538456178
H        1.2199626981    0.9881239851    2.4936315618
H        2.3276623739   -3.1699201598    2.4917896749
H        3.7693698847   -1.7340220917    4.3693823690
H        1.6340815387   -1.0255561286    8.0405557201
H       -0.3318884527   -0.4409186718    4.2696066921
22   

C        1.8867711256   -1.0679391984   -0.1450568655
C        1.7113649116    0.1298654197    0.5563513059
C        2.0049143959   -2.2746447008    0.5532629821
C        2.8667302532   -1.2676091754    6.2912661633
C        1.6518194828    0.1191497109    1.9550143484
C        1.9449556241   -2.2828229955    1.9521273869
C        2.9005042663   -1.2904607791    4.8925173744
C        1.6558375389   -1.0417379588    6.9557740251
C        0.5214062324   -0.8600979381    4.8288795775
C        1.7601612421   -1.0886231026    2.6611787249
C        1.7249479228   -1.0963011851    4.1517417739
C        0.4787517459   -0.8353057215    6.2278145514
Cl      -1.0266968920   -0.5468256422    7.0557075294
H        1.9335306396   -1.0606866954   -1.2304000574
H        1.6236367180    1.0685308039    0.0167274097
H        2.1441699303   -3.2053431847    0.0107116021
H        3.7794910847   -1.4220112419    6.8598276779
H        1.5225429012    1.0494941237    2.5004496601
H        2.0392118750   -3.2192089332    2.4942907424
H        3.8393015004   -1.4573401613    4.3722401212
H        1.6241534928   -1.0222412566    8.0410977775
H       -0.3898110363   -0.6969842655    4.2618173485
22   

C        1.8770479159   -1.0790291112   -0.1465643425
C        1.9016239357    0.1358288103    0.5471119655
C        1.8125648105   -2.2849798864    0.5601396609
C        2.8893632138   -1.0907735393    6.3028693086
C        1.8618624204    0.1430628137    1.9465281020
C        1.7729046940   -2.2749138928    1.9597074215
C        2.9384748042   -1.0969406571    4.9043882578
C        1.6527462319   -1.0437505675    6.9567087034
C        0.5233633264   -1.0093516550    4.8197192240
C        1.7974820640   -1.0625048667    2.6608618016
C        1.7546367197   -1.0562277842    4.1535174278
C        0.4647954242   -1.0028531932    6.2182965047
Cl      -1.0740685132   -0.9443516714    7.0328368032
H        1.9075195720   -1.0859042422   -1.2324887949
H        1.9510867100    1.0734274773    0.0008188214
H        1.7928036725   -3.2292925538    0.0236256981
H        3.8095818332   -1.1224348740    6.8794395598
H        1.8802447974    1.0852815412    2.4865289526
H        1.7222299161   -3.2105621926    2.5090050165
H        3.8954001547   -1.1333551436    4.3916877950
H        1.6087907983   -1.0387553013    8.0417682403
H       -0.3963963297   -0.9776985656    4.2438936460
22   

C        1.8731343395   -1.0909382709   -0.1472263825
C        2.0889038382    0.1088118799    0.5392730190
C        1.6243256645   -2.2681091125    0.5667833163
C        2.8687709162   -0.9165679474    6.3128431990
C        2.0583118205    0.1291716269    1.9387864214
C        1.5943167705   -2.2449175504    1.9664019258
C        2.9311753123   -0.9102793640    4.9149019638
C        1.6320426892   -1.0465395962    6.9548325379
C        0.5293714788   -1.1658416143    4.8070943616
C        1.8187629009   -1.0492129978    2.6618444988
C        1.7598458739   -1.0256666352    4.1515139173
C        0.4575634710   -1.1734169188    6.2050127193
Cl      -1.0810103482   -1.3420721475    7.0046058893
H        1.8958120967   -1.1078960540   -1.2332311915
H        2.2773610015    1.0251405046   -0.0128043648
H        1.4528446902   -3.2001513193    0.0358729038
H        3.7792001827   -0.8234468403    6.8982350832
H        2.2185237840    1.0616579337    2.4720990813
H        1.3981884003   -3.1585246389    2.5201466278
H        3.8896242049   -0.8171912916    4.4123534708
H        1.5778623324   -1.0526420462    8.0394235313
H       -0.3804250495   -1.2668499941    4.2234965228
22   

C        1.8694859438   -1.0925235945   -0.1504216278
C        2.2486653582    0.0630312107    0.5404303034
C        1.4553609771   -2.2245659892    0.5591918883
C        2.8387930494   -0.7581386029    6.3065432163
C        2.2164639975    0.0840298570    1.9398600882
C        1.4237801417   -2.2013150740    1.9587349553
C        2.8980574286   -0.7532402354    4.9084903479
C        1.6299327602   -1.0399287763    6.9522647398
C        0.5484456349   -1.3134685164    4.8079695302
C        1.8127546079   -1.0512419071    2.6610595672
C        1.7496278639   -1.0200745335    4.1461833151
C        0.4805133892   -1.3207077892    6.2060283111
Cl      -1.0228576877   -1.6787248309    7.0102439269
H        1.8934501177   -1.1097342938   -1.2363953708
H        2.5646226395    0.9455623038   -0.0084447183
H        1.1572418302   -3.1220583214    0.0247617303
H        3.7310323131   -0.5472812197    6.8893632611
H        2.5010964012    0.9860792847    2.4734715651
H        1.1014998846   -3.0826545129    2.5055726056
H        3.8385012193   -0.5460173313    4.4061712795
H        1.5785994374   -1.0456912335    8.0369965127
H       -0.3444823347   -1.5316002048    4.2305386141
22   

C        1.8715378941   -1.0859453561   -0.1512517851
C        2.3880274821    0.0066967233    0.5515153863
C        1.3148540018   -2.1618520191    0.5467506114
C        2.8069732316   -0.6236050187    6.3006282467
C        2.3490331427    0.0215750458    1.9508241655
C        1.2761875209   -2.1451791257    1.9461495288
C        2.8568930247   -0.6267729449    4.9022175546
C        1.6425383160   -1.0328779283    6.9583088320
C        0.5855663832   -1.4481488841    4.8249216516
C        1.7967097633   -1.0559966020    2.6642813309
C        1.7438329276   -1.0338390520    4.1472658351
C        0.5277221053   -1.4477012908    6.2233736033
Cl      -0.9228405582   -1.9585155658    7.0420162391
H        1.9013213846   -1.0983326954   -1.2371486598
H        2.8166376372    0.8462353539    0.0116815518
H        0.9133699053   -3.0123923091    0.0032564921
H        3.6731807516   -0.3070612391    6.8748343864
H        2.7411999848    0.8809651674    2.4861585298
H        0.8492385926   -2.9910399735    2.4765695232
H        3.7688370389   -0.3207568269    4.3983249186
H        1.5988185858   -1.0323076451    8.0433894529
H       -0.2880366490   -1.7632570885    4.2634458401
22   

C        1.9239974687   -1.0574213022   -0.1569317492
C        1.4077217900   -2.1643796956    0.5207300557
C        2.3712384062    0.0508029149    0.5661463712
C        0.6237509812   -1.7473949378    6.2200375203
C        1.3402876313   -2.1631384872    1.9190909397
C        2.3038760065    0.0506270261    1.9644159983
C        0.6905682263   -1.7505492517    4.8223177582
C        1.5760800180   -1.0456483279    6.9636232602
C        2.6567440353   -0.3549027532    4.9160460367
C        1.7917720734   -1.0585517889    2.6638525530
C        1.7058053476   -1.0507126246    4.1459949538
C        2.5968406908   -0.3472827336    6.3143274126
Cl       3.7912894610    0.5208863187    7.2390695881
H        1.9761425687   -1.0577117010   -1.2420574370
H        1.0610797796   -3.0289380294   -0.0381412760
H        2.7670793810    0.9163805426    0.0425980479
H       -0.1706360535   -2.2877284769    6.7272245313
H        0.9504770614   -3.0433320782    2.4196607955
H        2.6374033462    0.9341498548    2.4989615113
H       -0.0706765192   -2.2883848176    4.2666365240
H        1.5284376705   -1.0406399631    8.0485329796
H        3.4721085668    0.1759625643    4.4369634315
22   

C        1.9156434261   -1.0542972366   -0.1662576021
C        1.2709778661   -2.0915268387    0.5077697826
C        2.4950766099   -0.0158033763    0.5625104448
C        0.7185243432   -1.8558911158    6.2391497477
C        1.2098223391   -2.0926732371    1.9065387034
C        2.4336006731   -0.0179128756    1.9609020453
C        0.7809404749   -1.8549160517    4.8411146162
C        1.5880794069   -1.0544031351    6.9797541905
C        2.5811411385   -0.2583025099    4.9273792674
C        1.8001875817   -1.0645926496    2.6658985752
C        1.7043515320   -1.0469758786    4.1511526046
C        2.5246967937   -0.2539980178    6.3257402096
Cl       3.6247257780    0.7363880714    7.2451336116
H        1.9627815965   -1.0532309702   -1.2516170109
H        0.8175683877   -2.9025495758   -0.0549556764
H        2.9887243331    0.8006295618    0.0430810141
H       -0.0102991920   -2.4793369878    6.7494622723
H        0.7135400444   -2.9328582841    2.3769509033
H        2.8717576004    0.8285117585    2.4764715703
H        0.0704108382   -2.4803820168    4.3141090224
H        1.5429120972   -1.0524912142    8.0647838239
H        3.3463404293    0.3552199295    4.4682296589
22   

C        1.9066897512   -1.0512420726   -0.1814875717
C        1.1046496793   -1.9741638314    0.4866264868
C        2.6490889833   -0.1307510216    0.5549118204
C        0.8516739355   -1.9949098163    6.2463883534
C        1.0447041234   -1.9772421068    1.8855660477
C        2.5889504723   -0.1340584000    1.9532761437
C        0.9131400034   -1.9899804494    4.8482249835
C        1.5934333434   -1.0745799487    6.9849147110
C        2.4552891381   -0.1477294941    4.9289771489
C        1.7831880809   -1.0595884639    2.6581512216
C        1.7155819753   -1.0676806849    4.1487511403
C        2.3985610346   -0.1469638212    6.3273484723
Cl       3.3294168734    1.0075403936    7.2424803337
H        1.9528253675   -1.0493393510   -1.2668931091
H        0.5232280286   -2.6946606293   -0.0815955101
H        3.2768696949    0.5920529773    0.0415464029
H        0.2237883338   -2.7183099195    6.7590148422
H        0.3992692505   -2.7247019210    2.3263737743
H        3.1928554976    0.6098623559    2.4556234602
H        0.3093224531   -2.7342625146    4.3468612851
H        1.5479747148   -1.0756904107    8.0699381765
H        3.0998822331    0.5991728151    4.4867138098
22   

C        1.9088812813   -1.0314837995   -0.1735917788
C        0.9646767456   -1.8224470235    0.4811013012
C        2.7932618328   -0.2547474873    0.5746719543
C        0.9965260725   -2.1238575160    6.2350906359
C        0.9020282450   -1.8333067174    1.8797617453
C        2.7297189581   -0.2660488941    1.9729326388
C        1.0591569178   -2.1112358131    4.8371189776
C        1.5965068850   -1.1024143014    6.9724765226
C        2.3147992241   -0.0581865752    4.9167786522
C        1.7727584943   -1.0465709340    2.6575503920
C        1.7304121220   -1.0857127287    4.1448657394
C        2.2562171545   -0.0640215854    6.3150452390
Cl       2.9928657971    1.2234309305    7.2293845036
H        1.9577462941   -1.0234089446   -1.2588460112
H        0.2738190311   -2.4296641094   -0.0968289140
H        3.5382743512    0.3546391592    0.0710253551
H        0.4825451962   -2.9319185007    6.7480714147
H        0.1365865835   -2.4511881947    2.3334195160
H        3.4604059977    0.3305938011    2.5061848446
H        0.5938163509   -2.9380281558    4.3139983839
H        1.5498665652   -1.1085171372    8.0574287235
H        2.8100499947    0.7856811306    4.4526751560
22   

C        1.9067445350   -1.0300712194   -0.1593742136
C        0.8725369674   -1.7061711328    0.4920847354
C        2.8818227273   -0.3680858862    0.5902993719
C        1.1245264527   -2.1862752541    6.2345777792
C        0.8132419300   -1.7187954840    1.8907538739
C        2.8211119320   -0.3809046255    1.9888181070
C        1.1819078091   -2.1745217916    4.8364758645
C        1.6113104552   -1.0979221510    6.9631944017
C        2.2089705749    0.0081459008    4.8999766866
C        1.7828766061   -1.0524508686    2.6617666373
C        1.7291517812   -1.0788016672    4.1451978944
C        2.1547368620    0.0039509764    6.2984904838
Cl       2.7538908435    1.3665741114    7.2039517609
H        1.9534580028   -1.0203301712   -1.2447036028
H        0.1111733356   -2.2201878113   -0.0876331903
H        3.6915544593    0.1531051599    0.0875957794
H        0.7046367026   -3.0431312211    6.7539401726
H       -0.0107305567   -2.2374940433    2.3695900842
H        3.6046658263    0.1226102137    2.5456907146
H        0.8135445701   -3.0389460110    4.2936855384
H        1.5685523776   -1.1024612005    8.0483081521
H        2.6144685075    0.8850536296    4.4072664051
22   

C        1.9148338181   -1.0233599838   -0.1566801321
C        0.8042229825   -1.5818675471    0.4829403526
C        2.9589455236   -0.4878032301    0.6033782331
C        1.2366795138   -2.2518681636    6.2268471871
C        0.7396445688   -1.6059214805    1.8811715718
C        2.8925777550   -0.5122099226    2.0016255370
C        1.2895635568   -2.2390873059    4.8286056275
C        1.6090492787   -1.1140092401    6.9497163712
C        2.0867038865    0.0414970229    4.8814632241
C        1.7849248260   -1.0753860717    2.6565474456
C        1.7099504169   -1.0893605757    4.1386937575
C        2.0364598927    0.0366801376    6.2802072365
Cl       2.5013350490    1.4541908119    7.1800898519
H        1.9657823020   -1.0042014724   -1.2416914802
H       -0.0107439350   -1.9942211741   -0.1050618701
H        3.8233542446   -0.0537715664    0.1090023047
H        0.9102299257   -3.1460498494    6.7503922254
H       -0.1334265443   -2.0303703536    2.3675037478
H        3.7142206116   -0.1010298826    2.5803699079
H        1.0120406244   -3.1305844816    4.2741609976
H        1.5698548958   -1.1189197724    8.0349595203
H        2.4111825719    0.9424917259    4.3709227007
22   

C        1.9206988131   -1.0215333694   -0.1551111757
C        0.7461786016   -1.4430889820    0.4766870732
C        3.0222747071   -0.6282521715    0.6119907949
C        1.3713732511   -2.2834174561    6.2362282966
C        0.6758037405   -1.4740365758    1.8745322644
C        2.9496760350   -0.6598400969    2.0098415009
C        1.4162901045   -2.2798422720    4.8376390444
C        1.6161309393   -1.1020049311    6.9447877054
C        1.9521563912    0.0774595512    4.8619042592
C        1.7803512185   -1.0916433592    2.6528279085
C        1.6962753894   -1.0956750306    4.1372228300
C        1.9094780726    0.0825682257    6.2609724578
Cl       2.2213966587    1.5518276592    7.1436088950
H        1.9762055321   -0.9964843760   -1.2397771604
H       -0.1128231201   -1.7429911243   -0.1167173046
H        3.9343680610   -0.2973192432    0.1235730679
H        1.1506315396   -3.2030358883    6.7708374650
H       -0.2409779884   -1.7914948734    2.3625712905
H        3.8074770356   -0.3535312494    2.6014561904
H        1.2378700295   -3.1988156338    4.2868628322
H        1.5831793448   -1.0994123736    8.0302452565
H        2.1799736620    0.9975976292    4.3329682476
22   

C        1.9192676334   -1.0250338839   -0.1524263688
C        0.6987456846   -1.2834857299    0.4806388153
C        3.0676763636   -0.7967633442    0.6134054079
C        1.5297346533   -2.3117807400    6.2465354038
C        0.6289114095   -1.3160455670    1.8785134933
C        2.9950178474   -0.8299376869    2.0112568595
C        1.5732877159   -2.3113380562    4.8478669039
C        1.6226722027   -1.1039192836    6.9472270491
C        1.8045147043    0.0953266963    4.8563782725
C        1.7783251658   -1.0974185842    2.6530004908
C        1.7017855179   -1.1057792903    4.1420287539
C        1.7621381112    0.1042938794    6.2554909209
Cl       1.8846809738    1.6069852655    7.1283617866
H        1.9746028169   -0.9986971038   -1.2370704304
H       -0.1953827041   -1.4561281734   -0.1115539986
H        4.0157252884   -0.5922371491    0.1241747168
H        1.4267051376   -3.2484958842    6.7870783768
H       -0.3197954088   -1.5094289211    2.3706307354
H        3.8862782072   -0.6497358999    2.6053610669
H        1.5090693258   -3.2471148330    4.3001056081
H        1.5900359775   -1.0984912557    8.0326835747
H        1.9153678819    1.0314085089    4.3178791693
22   

C        1.9066783923   -1.0356912433   -0.1520775434
C        0.6687636900   -1.1029637366    0.4965345582
C        3.0863558289   -0.9889251701    0.5989535832
C        1.7064707236   -2.3235023856    6.2452077053
C        0.6122555796   -1.1235409782    1.8952476467
C        3.0269456184   -1.0096383197    1.9976995295
C        1.7616368403   -2.3127821488    4.8469766542
C        1.6219412217   -1.1165076172    6.9487184180
C        1.6479341074    0.1025515443    4.8614924542
C        1.7912002247   -1.0771869095    2.6538733323
C        1.7327031871   -1.0985959668    4.1458371986
C        1.5923063197    0.1013520321    6.2602018703
Cl       1.4870807146    1.6033678423    7.1364862921
H        1.9518030551   -1.0193162964   -1.2373897968
H       -0.2485464869   -1.1387932848   -0.0841815548
H        4.0485167977   -0.9360990668    0.0975348459
H        1.7292481899   -3.2671150892    6.7830871643
H       -0.3479405018   -1.1751176778    2.4002994258
H        3.9421800172   -0.9727446087    2.5814125010
H        1.8273113364   -3.2465225941    4.2958792919
H        1.5788645366   -1.1189558424    8.0338218954
H        1.6251472979    1.0456661029    4.3243209361
22   

C        1.8952457813   -1.0343624746   -0.1523753321
C        0.6718856962   -0.9045606046    0.5139937369
C        3.0785250670   -1.1721074382    0.5815561669
C        1.8839050066   -2.3111930547    6.2347644928
C        0.6335979653   -0.9101546355    1.9134280494
C        3.0377567991   -1.1773397469    1.9811261146
C        1.9557371563   -2.2794311863    4.8376350007
C        1.6203240886   -1.1350752449    6.9461785731
C        1.4988233388    0.0953949273    4.8689439489
C        1.8176335017   -1.0384836922    2.6556548496
C        1.7730643706   -1.0726723899    4.1455982304
C        1.4249510921    0.0724466466    6.2666173303
Cl       1.0895590812    1.5344828662    7.1525980886
H        1.9260041859   -1.0305615792   -1.2383071837
H       -0.2486018238   -0.8017476087   -0.0535580480
H        4.0290056087   -1.2760290610    0.0660552257
H        2.0296004971   -3.2478019870    6.7655875303
H       -0.3165104233   -0.8163219175    2.4313504309
H        3.9559620758   -1.2868158909    2.5508247170
H        2.1520451360   -3.1911141839    4.2807017687
H        1.5627596048   -1.1542747539    8.0304432641
H        1.3444003478    1.0303095376    4.3392565013
22   

C        1.8884044093   -1.0376207355   -0.1529689294
C        0.6997982489   -0.7361885205    0.5200117778
C        3.0439430015   -1.3410557893    0.5746732340
C        2.0399522624   -2.2666778008    6.2409709841
C        0.6688184309   -0.7352966724    1.9196055650
C        3.0108440494   -1.3396824294    1.9744144974
C        2.1151954163   -2.2309898005    4.8441296267
C        1.6241932808   -1.1319003544    6.9462049530
C        1.3575995271    0.0652586607    4.8632905482
C        1.8270618177   -1.0272932529    2.6580241702
C        1.7857186150   -1.0595287318    4.1437948490
C        1.2792650277    0.0377310728    6.2605666516
Cl       0.7536849441    1.4476908483    7.1385361673
H        1.9131800388   -1.0390218234   -1.2390604321
H       -0.2004535340   -0.5061937859   -0.0426958994
H        3.9672156130   -1.5785204826    0.0539790857
H        2.2998628135   -3.1754842733    6.7764607525
H       -0.2585157789   -0.5118921829    2.4390065653
H        3.9097144672   -1.5762169546    2.5361503828
H        2.4256390816   -3.1152293887    4.2950874639
H        1.5631900686   -1.1546507208    8.0302128927
H        1.0886951177    0.9730051361    4.3322489177
22   

C        1.8896774605   -1.0422986166   -0.1568787318
C        0.7456889719   -0.6022759484    0.5155986488
C        2.9934838159   -1.4960047829    0.5714637288
C        2.1733416002   -2.2324644084    6.2549062704
C        0.7071759389   -0.6144591702    1.9149359956
C        2.9531184236   -1.5079653908    1.9708843061
C        2.2346862575   -2.2058628176    4.8571913082
C        1.6387003250   -1.1435480663    6.9508944338
C        1.2273488240   -0.0092910305    4.8568201128
C        1.8123664720   -1.0628142956    2.6584295290
C        1.7677294487   -1.0902956136    4.1416390383
C        1.1625828284   -0.0282542615    6.2548443635
Cl       0.4950837879    1.3279270078    7.1211242917
H        1.9202255411   -1.0328720057   -1.2427842124
H       -0.1153025180   -0.2537673982   -0.0476391098
H        3.8838225862   -1.8377444700    0.0514117534
H        2.5370619952   -3.0998295110    6.7986134585
H       -0.1919334511   -0.2829549074    2.4256448974
H        3.8195611310   -1.8544684283    2.5259739020
H        2.6378744333   -3.0610536288    4.3231117146
H        1.5887043178   -1.1595054176    8.0355878802
H        0.8631034769    0.8642327102    4.3257491483
22   

C        1.8912035169   -1.0397539948   -0.1596784219
C        0.8004873450   -0.4813497800    0.5107397234
C        2.9272486360   -1.6258526283    0.5711045983
C        2.2884847634   -2.1603335004    6.2804746907
C        0.7459671063   -0.5101844849    1.9093087604
C        2.8711031637   -1.6545763747    1.9696350678
C        2.3269167383   -2.1565655716    4.8817038118
C        1.6531981588   -1.1209384285    6.9648801703
C        1.0986372546   -0.0795040633    4.8563782564
C        1.7773603220   -1.1009347000    2.6615884441
C        1.7289932977   -1.1180829508    4.1453811169
C        1.0564481556   -0.0760712973    6.2553311670
Cl       0.2718853886    1.2261952989    7.1063033826
H        1.9342340613   -1.0167386257   -1.2449603546
H       -0.0083650337   -0.0265065428   -0.0539703903
H        3.7804964215   -2.0549512053    0.0536116728
H        2.7496655905   -2.9731100261    6.8345091560
H       -0.1216778536   -0.0839338931    2.4023367006
H        3.7005472540   -2.0959824944    2.5122741697
H        2.8109281777   -2.9834446641    4.3721739198
H        1.6213028754   -1.1193394995    8.0503763103
H        0.6480290582    0.7548896171    4.3302408851
22   

C        1.8980536821   -1.0331301266   -0.1731795205
C        0.8839379508   -0.3551803983    0.5031448992
C        2.8495403802   -1.7490213731    0.5530044243
C        2.4093028888   -2.0737045477    6.2947489122
C        0.8195491796   -0.3959394278    1.9010808049
C        2.7840353727   -1.7892776436    1.9507151146
C        2.4309130914   -2.0844159633    4.8956159343
C        1.6731217322   -1.1039915960    6.9762151821
C        0.9868921331   -0.1583877863    4.8624002669
C        1.7593974203   -1.1220681199    2.6572113154
C        1.7116182910   -1.1353078037    4.1449256150
C        0.9605245910   -0.1411369059    6.2616279995
Cl       0.0522228835    1.0823468275    7.1068200226
H        1.9483921837   -1.0008406694   -1.2579144107
H        0.1398795143    0.2038810374   -0.0571118977
H        3.6478542207   -2.2703458056    0.0325133810
H        2.9640299757   -2.8234061283    6.8519825788
H       -0.0010175657    0.1319933674    2.3722055090
H        3.5657087795   -2.3344474852    2.4659451107
H        3.0013192818   -2.8699846920    4.4143486490
H        1.6540046849   -1.0917495132    8.0619490018
H        0.4427103923    0.6293879080    4.3567424079
22   

C        1.8784171807   -1.0458569673   -0.1862066315
C        1.0060271823   -0.2077082476    0.5047600920
C        2.7142781331   -1.9009918043    0.5282931351
C        2.5507678356   -1.9574362098    6.3014593362
C        0.9693463852   -0.2243208145    1.9043124404
C        2.6769274339   -1.9169263806    1.9274394225
C        2.5905390630   -1.9439128906    4.9026564373
C        1.6757431029   -1.1164500764    6.9865284078
C        0.8840314083   -0.2522162904    4.8756588372
C        1.8012636599   -1.0769674580    2.6562394865
C        1.7601218999   -1.0926428854    4.1478339143
C        0.8386673831   -0.2601985349    6.2744908933
Cl      -0.2587672388    0.7949710710    7.1225291417
H        1.9065146238   -1.0326063432   -1.2721484271
H        0.3512007846    0.4618654321   -0.0456729951
H        3.3973493798   -2.5576184937   -0.0030176365
H        3.2037849961   -2.6253843322    6.8561989551
H        0.2653820460    0.4556820549    2.3649123713
H        3.3550120738   -2.6070209059    2.4112649905
H        3.2944073314   -2.6238054768    4.4415912736
H        1.6420115714   -1.1241000427    8.0719522408
H        0.2064463509    0.4373913755    4.3918091119
