22   

C        1.8654022024   -1.0660985861   -0.1744315564
C        1.1522220070   -0.0843915685    0.5133809693
C        2.5628357157   -2.0384172032    0.5420550888
C        2.6657756653   -1.8148236014    6.3045493875
C        1.1394482465   -0.0730449816    1.9132880421
C        2.5495557520   -2.0259510615    1.9417604887
C        2.7295918291   -1.7829406733    4.9070282501
C        1.6636550141   -1.1135364299    6.9758557964
C        0.7918048261   -0.3553007988    4.8549481262
C        1.8458659547   -1.0347861920    2.6605102600
C        1.8023724922   -1.0437055815    4.1483916348
C        0.7214036068   -0.3824895665    6.2524945302
Cl      -0.5422088395    0.4823614291    7.0841136389
H        1.8746573682   -1.0752835469   -1.2607355351
H        0.6073043208    0.6756725749   -0.0392740534
H        3.1114523727   -2.8117800356    0.0120317082
H        3.3994024204   -2.3839478901    6.8686179364
H        0.5858705704    0.7243795400    2.3946063169
H        3.0826715547   -2.8220028480    2.4475020353
H        3.5384772473   -2.3277992133    4.4348700922
H        1.6101833464   -1.1359650940    8.0602777666
H        0.0182905897    0.2009935305    4.3405295041
22   

C        1.8817629652   -1.0657702855   -0.1571827742
C        1.2826764676   -0.0051014290    0.5261876485
C        2.4482517390   -2.1209178812    0.5616138011
C        2.7324620373   -1.6791326937    6.3070251415
C        1.2513589074    0.0003645067    1.9257567691
C        2.4167843769   -2.1137860892    1.9611912037
C        2.7884021354   -1.6678720082    4.9088814893
C        1.6576266602   -1.0792137518    6.9682457765
C        0.6999750732   -0.4606625563    4.8379387998
C        1.8215456537   -1.0507702391    2.6664203553
C        1.7750222552   -1.0547873246    4.1503950299
C        0.6368209939   -0.4682782082    6.2360807915
Cl      -0.7093908980    0.2722244369    7.0576377200
H        1.9054356832   -1.0707616896   -1.2432910226
H        0.8428551265    0.8184858536   -0.0290443282
H        2.9088670003   -2.9510191940    0.0336695232
H        3.5263898720   -2.1513815001    6.8787829923
H        0.7943895865    0.8456743597    2.4299464241
H        2.8442895826   -2.9573759833    2.4930422182
H        3.6417575816   -2.1249644216    4.4185087643
H        1.6096826709   -1.0859515185    8.0531314261
H       -0.1165370718   -0.0001416257    4.2926730904
22   

C        1.8897870214   -1.0596334035   -0.1503376076
C        1.4065563192    0.0545717480    0.5422191991
C        2.3239393487   -2.1843519942    0.5576556411
C        2.7969489227   -1.5620490529    6.2942062558
C        1.3560480750    0.0424516740    1.9411845361
C        2.2731590953   -2.1946591695    1.9567401473
C        2.8332146591   -1.5736498270    4.8954165028
C        1.6720145218   -1.0636576662    6.9590704408
C        0.6272954394   -0.5893276819    4.8319910619
C        1.7841173881   -1.0842979898    2.6639067469
C        1.7452959146   -1.0927938592    4.1473274417
C        0.5833041076   -0.5743108872    6.2308788863
Cl      -0.8177436680    0.0481558610    7.0584146703
H        1.9290446728   -1.0508622359   -1.2359679023
H        1.0731320830    0.9317500560   -0.0049421141
H        2.6992213698   -3.0516057208    0.0219512525
H        3.6434973907   -1.9361669203    6.8630874905
H        0.9914686738    0.9189965690    2.4683154773
H        2.6051213264   -3.0769491130    2.4955153464
H        3.7160034402   -1.9487881158    4.3863911545
H        1.6391590908   -1.0522548403    8.0444766737
H       -0.2259878976   -0.2151782418    4.2755083845
22   

C        1.8856418802   -1.0595654837   -0.1460372392
C        1.5406227271    0.1011621000    0.5541215618
C        2.1699878776   -2.2371599939    0.5534032139
C        2.8303645505   -1.4267501719    6.2874853430
C        1.4770951358    0.0822081567    1.9524893762
C        2.1059554424   -2.2540004915    1.9519682892
C        2.8579240961   -1.4524009743    4.8886683277
C        1.6604409125   -1.0480212225    6.9551466568
C        0.5543643999   -0.7193792329    4.8311528365
C        1.7495135613   -1.0986058406    2.6620860418
C        1.7150827967   -1.1100584424    4.1483505031
C        0.5185933053   -0.6907327334    6.2301415806
Cl      -0.9352238775   -0.2112192057    7.0617294892
H        1.9356336910   -1.0455917511   -1.2311711887
H        1.3253216310    1.0185170818    0.0136631077
H        2.4412224672   -3.1388186938    0.0117492486
H        3.7173672180   -1.6963667810    6.8538457158
H        1.2199127739    0.9881109279    2.4936296472
H        2.3278226682   -3.1698763531    2.4917923850
H        3.7693712733   -1.7340200112    4.3693837444
H        1.6340803777   -1.0255594984    8.0405558072
H       -0.3318894903   -0.4409213578    4.2696070764
22   

C        1.8868952778   -1.0679224344   -0.1450523126
C        1.7114154178    0.1298726066    0.5563534974
C        2.0050769140   -2.2746232909    0.5532687292
C        2.8667304430   -1.2676081768    6.2912661528
C        1.6518194828    0.1191497109    1.9550143484
C        1.9450709023   -2.2828077361    1.9521310457
C        2.9005042663   -1.2904607791    4.8925173744
C        1.6558380185   -1.0417354996    6.9557740236
C        0.5214066978   -0.8600955995    4.8288795862
C        1.7601612421   -1.0886231026    2.6611787249
C        1.7249479228   -1.0963011851    4.1517417739
C        0.4787523900   -0.8353024345    6.2278145472
Cl      -1.0266958500   -0.5468201708    7.0557074910
H        1.9336893362   -1.0606651310   -1.2303939859
H        1.6236708800    1.0685365004    0.0167296648
H        2.1444000821   -3.2053132293    0.0107200482
H        3.7794912483   -1.4220103921    6.8598276684
H        1.5224951183    1.0494884733    2.5004479604
H        2.0393651948   -3.2191893717    2.4942952121
H        3.8393015996   -1.4573405159    4.3722404105
H        1.6241541060   -1.0222380906    8.0410977664
H       -0.3898105477   -0.6969813371    4.2618175190
22   

C        1.8770475355   -1.0790290964   -0.1465643572
C        1.9016237729    0.1358288147    0.5471119611
C        1.8125643333   -2.2849798681    0.5601396453
C        2.8893632103   -1.0907735687    6.3028693063
C        1.8618624204    0.1430628137    1.9465281020
C        1.7729043639   -2.2749138809    1.9597074119
C        2.9384748042   -1.0969406571    4.9043882578
C        1.6527462287   -1.0437506137    6.9567086988
C        0.5233633281   -1.0093516835    4.8197192241
C        1.7974820640   -1.0625048667    2.6608618016
C        1.7546367197   -1.0562277842    4.1535174278
C        0.4647954235   -1.0028532321    6.2182965031
Cl      -1.0740685134   -0.9443517071    7.0328368000
H        1.9075190751   -1.0859042212   -1.2324888143
H        1.9510865809    1.0734274828    0.0008188243
H        1.7928030001   -3.2292925257    0.0236256767
H        3.8095818276   -1.1224349122    6.8794395566
H        1.8802449469    1.0852815373    2.4865289542
H        1.7222294830   -3.2105621779    2.5090050038
H        3.8954001607   -1.1333551264    4.3916878050
H        1.6087907954   -1.0387553652    8.0417682350
H       -0.3963963254   -0.9776986054    4.2438936465
22   

C        1.8730132956   -1.0909130082   -0.1472302634
C        2.0888546473    0.1088225313    0.5392717823
C        1.6241670911   -2.2680765744    0.5667780280
C        2.8687713260   -0.9165680926    6.3128432263
C        2.0583118205    0.1291716269    1.9387864214
C        1.5942042573   -2.2448944306    1.9663977546
C        2.9311753123   -0.9102793640    4.9149019638
C        1.6320433578   -1.0465398473    6.9548329583
C        0.5293715850   -1.1658416253    4.8070951267
C        1.8187629009   -1.0492129978    2.6618444988
C        1.7598458739   -1.0256666352    4.1515139173
C        0.4575639788   -1.1734170765    6.2050134787
Cl      -1.0810096529   -1.3420722320    7.0046070257
H        1.8956574089   -1.1078635986   -1.2332358859
H        2.2773278280    1.0251485741   -0.0128044168
H        1.4526201039   -3.2001055694    0.0358657397
H        3.7792007734   -0.8234470975    6.8982348477
H        2.2185704578    1.0616490108    2.4721006389
H        1.3980387744   -3.1584946570    2.5201406432
H        3.8896242200   -0.8171914290    4.4123535033
H        1.5778633260   -1.0526424071    8.0394239676
H       -0.3804254543   -1.2668492727    4.2234979519
22   

C        1.8693597819   -1.0924765537   -0.1504269153
C        2.2486142900    0.0630510044    0.5404288243
C        1.4551953698   -2.2245055280    0.5591844000
C        2.8387936951   -0.7581361483    6.3065432436
C        2.2164639975    0.0840298570    1.9398600882
C        1.4236624298   -2.2012723671    1.9587288010
C        2.8980574286   -0.7532402354    4.9084903479
C        1.6299332824   -1.0399227054    6.9522658170
C        0.5484445623   -1.3134624295    4.8079714989
C        1.8127546079   -1.0512419071    2.6610595672
C        1.7496278639   -1.0200745335    4.1461833151
C        0.4805129518   -1.3206994992    6.2060303010
Cl      -1.0228588986   -1.6787108098    7.0102470442
H        1.8932889875   -1.1096738408   -1.2364016396
H        2.5645886115    0.9455772054   -0.0084442479
H        1.1570072504   -3.1219733684    0.0247515839
H        3.7310336704   -0.5472796711    6.8893625285
H        2.5011453223    0.9860626519    2.4734735341
H        1.1013431991   -3.0825997585    2.5055628603
H        3.8385017032   -0.5460199122    4.4061711632
H        1.5786004720   -1.0456835538    8.0369976206
H       -0.3444856420   -1.5315907563    4.2305428397
22   

C        1.8714704581   -1.0859094132   -0.1512552698
C        2.3880003228    0.0067117338    0.5515144681
C        1.3147651232   -2.1618057783    0.5467454867
C        2.8069735674   -0.6236023909    6.3006282423
C        2.3490331427    0.0215750458    1.9508241655
C        1.2761240490   -2.1451466318    1.9461452444
C        2.8568930247   -0.6267729449    4.9022175546
C        1.6425380749   -1.0328715197    6.9583098355
C        0.5855646192   -1.4481426483    4.8249235178
C        1.7967097633   -1.0559966020    2.6642813309
C        1.7438329276   -1.0338390520    4.1472658351
C        0.5277206738   -1.4476926807    6.2233754704
Cl      -0.9228434823   -1.9585010916    7.0420191482
H        1.9012354096   -1.0982865433   -1.2371527675
H        2.8166198552    0.8462464301    0.0116819661
H        0.9132440065   -3.0123273445    0.0032494114
H        3.6731819083   -0.3070594827    6.8748336204
H        2.7412263141    0.8809524976    2.4861595021
H        0.8491538864   -2.9909988127    2.4765618520
H        3.7688378885   -0.3207594819    4.3983248928
H        1.5988186175   -1.0322995068    8.0433904667
H       -0.2880411251   -1.7632477650    4.2634503505
22   

C        1.9240122226   -1.0574282996   -0.1569313099
C        1.4077277168   -2.1643826148    0.5207303452
C        2.3712578839    0.0507939684    0.5661467914
C        0.6237511462   -1.7473958057    6.2200375246
C        1.3402876313   -2.1631384872    1.9190909397
C        2.3038899853    0.0506208137    1.9644161508
C        0.6905682263   -1.7505492517    4.8223177582
C        1.5760806844   -1.0456503458    6.9636236078
C        2.6567451039   -0.3549046229    4.9160466677
C        1.7917720734   -1.0585517889    2.6638525530
C        1.7058053476   -1.0507126246    4.1459949538
C        2.5968418982   -0.3472853738    6.3143280550
Cl       3.7912916455    0.5208819359    7.2390706137
H        1.9761613669   -1.0577207099   -1.2420568013
H        1.0610836098   -3.0289401886   -0.0381408619
H        2.7671069769    0.9163679880    0.0425986399
H       -0.1706361919   -2.2877291423    6.7272242746
H        0.9504712863   -3.0433297183    2.4196604009
H        2.6374221546    0.9341421756    2.4989610086
H       -0.0706770775   -2.2883840360    4.2666365589
H        1.5284384029   -1.0406425275    8.0485333320
H        3.4721105866    0.1759600206    4.4369650352
22   

C        1.9156302876   -1.0542888227   -0.1662578690
C        1.2709726736   -2.0915233997    0.5077695585
C        2.4950589955   -0.0157924678    0.5625102772
C        0.7185248945   -1.8558910544    6.2391497763
C        1.2098223391   -2.0926732371    1.9065387034
C        2.4335878364   -0.0179052402    1.9609020867
C        0.7809404749   -1.8549160517    4.8411146162
C        1.5880805165   -1.0544032191    6.9797538525
C        2.5811418441   -0.2583029154    4.9273785945
C        1.8001875817   -1.0645926496    2.6658985752
C        1.7043515320   -1.0469758786    4.1511526046
C        2.5246980070   -0.2539983722    6.3257395507
Cl       3.6247276971    0.7363872888    7.2451325542
H        1.9627649682   -1.0532201923   -1.2516174263
H        0.8175652654   -2.9025471975   -0.0549560418
H        2.9886992890    0.8006449256    0.0430807921
H       -0.0102985840   -2.4793367405    6.7494626071
H        0.7135455136   -2.9328612849    2.3769514060
H        2.8717396616    0.8285215104    2.4764726057
H        0.0704107127   -2.4803817597    4.3141088205
H        1.5429136071   -1.0524912653    8.0647835021
H        3.3463410624    0.3552188161    4.4682277439
22   

C        1.9066897256   -1.0512420400   -0.1814875727
C        1.1046496523   -1.9741638095    0.4866264817
C        2.6490890035   -0.1307510248    0.5549118207
C        0.8516739711   -1.9949098432    6.2463883559
C        1.0447041234   -1.9772421068    1.8855660477
C        2.5889505082   -0.1340584234    1.9532761464
C        0.9131400034   -1.9899804494    4.8482249835
C        1.5934333973   -1.0745799860    6.9849147122
C        2.4552891039   -0.1477294659    4.9289771464
C        1.7831880809   -1.0595884639    2.6581512216
C        1.7155819753   -1.0676806849    4.1487511403
C        2.3985610409   -0.1469638190    6.3273484718
Cl       3.3294168699    1.0075404059    7.2424803352
H        1.9528253187   -1.0493392828   -1.2668931096
H        0.5232279853   -2.6946605926   -0.0815955222
H        3.2768697351    0.5920529599    0.0415464015
H        0.2237883911   -2.7183099610    6.7590148481
H        0.3992692599   -2.7247019251    2.3263737803
H        3.1928555764    0.6098622955    2.4556234671
H        0.3093224481   -2.7342625094    4.3468612838
H        1.5479748134   -1.0756904795    8.0699381786
H        3.0998821354    0.5991728916    4.4867137966
22   

C        1.9088918278   -1.0314952350   -0.1735910898
C        0.9646810411   -1.8224515251    0.4811014561
C        2.7932755708   -0.2547628664    0.5746730556
C        0.9965260903   -2.1238570162    6.2350906466
C        0.9020282450   -1.8333067174    1.8797617453
C        2.7297286479   -0.2660601560    1.9729335880
C        1.0591569178   -2.1112358131    4.8371189776
C        1.5965067326   -1.1024133370    6.9724761490
C        2.3147988047   -0.0581860290    4.9167779543
C        1.7727584943   -1.0465709340    2.6575503920
C        1.7304121220   -1.0857127287    4.1448657394
C        2.2562167361   -0.0640205726    6.3150445397
Cl       2.9928649240    1.2234324988    7.2293833722
H        1.9577597933   -1.0234234201   -1.2588452125
H        0.2738219484   -2.4296667672   -0.0968290477
H        3.5382937459    0.3546172676    0.0710269499
H        0.4825453833   -2.9319179079    6.7480717413
H        0.1365826534   -2.4511833177    2.3334196243
H        3.4604185900    0.3305779407    2.5061870914
H        0.5938165932   -2.9380282160    4.3139981965
H        1.5498664153   -1.1085158306    8.0574283529
H        2.8100489993    0.7856814204    4.4526732114
22   

C        1.9067351727   -1.0300580286   -0.1593747564
C        0.8725331121   -1.7061658686    0.4920846190
C        2.8818105958   -0.3680683509    0.5902985110
C        1.1245255243   -2.1862752589    6.2345777366
C        0.8132419300   -1.7187954840    1.8907538739
C        2.8211034167   -0.3808919889    1.9888173505
C        1.1819078091   -2.1745217916    4.8364758645
C        1.6113081409   -1.0979217845    6.9631946300
C        2.2089683983    0.0081466979    4.8999771920
C        1.7828766061   -1.0524508686    2.6617666373
C        1.7291517812   -1.0788016672    4.1451978944
C        2.1547337742    0.0039518133    6.2984909600
Cl       2.7538856208    1.3665757118    7.2039525152
H        1.9534460126   -1.0203134079   -1.2447042241
H        0.1111705968   -2.2201844684   -0.0876330711
H        3.6915373762    0.1531300457    0.0875945627
H        0.7046361048   -3.0431315430    6.7539398819
H       -0.0107272370   -2.2374992835    2.3695900721
H        3.6046550541    0.1226273189    2.5456890305
H        0.8135455100   -3.0389464424    4.2936856143
H        1.5685494333   -1.1024608281    8.0483083547
H        2.6144654124    0.8850553060    4.4072678083
22   

C        1.9147971444   -1.0232927768   -0.1566819132
C        0.8042076410   -1.5818405095    0.4829401125
C        2.9588983917   -0.4877146506    0.6033753838
C        1.2366767606   -2.2518685052    6.2268470641
C        0.7396445688   -1.6059214805    1.8811715718
C        2.8925446800   -0.5121466476    2.0016228963
C        1.2895635568   -2.2390873059    4.8286056275
C        1.6090425958   -1.1140090612    6.9497171580
C        2.0866974749    0.0414986685    4.8814649541
C        1.7849248260   -1.0753860717    2.6565474456
C        1.7099504169   -1.0893605757    4.1386937575
C        2.0364509899    0.0366814445    6.2802088700
Cl       2.5013200725    1.4541935415    7.1800924099
H        1.9657351788   -1.0041157966   -1.2416934241
H       -0.0107553034   -1.9942035292   -0.1050610267
H        3.8232880188   -0.0536460995    0.1089984514
H        0.9102280425   -3.1460509666    6.7503913169
H       -0.1334135969   -2.0303965871    2.3675040087
H        3.7141787660   -0.1009453379    2.5803645014
H        1.0120433552   -3.1305853225    4.2741610270
H        1.5698463698   -1.1189198665    8.0349602369
H        2.4111729346    0.9424959422    4.3709270905
22   

C        1.9206504970   -1.0214076886   -0.1551125246
C        0.7461582577   -1.4430381490    0.4766871703
C        3.0222126005   -0.6280871110    0.6119885125
C        1.3713707631   -2.2834180859    6.2362282094
C        0.6758037405   -1.4740365758    1.8745322644
C        2.9496321979   -0.6597227160    2.0098390536
C        1.4162901045   -2.2798422720    4.8376390444
C        1.6161247633   -1.1020055033    6.9447885301
C        1.9521502364    0.0774604802    4.8619060368
C        1.7803512185   -1.0916433592    2.6528279085
C        1.6962753894   -1.0956750306    4.1372228300
C        1.9094696917    0.0825685264    6.2609741432
Cl       2.2213825113    1.5518286401    7.1436114981
H        1.9761434305   -0.9963239155   -1.2397784101
H       -0.1128384579   -1.7429573537   -0.1167158243
H        3.9342807593   -0.2970854416    0.1235703074
H        1.1506299897   -3.2030371728    6.7708366341
H       -0.2409608728   -1.7915436188    2.3625716762
H        3.8074208564   -0.3533749310    2.6014514430
H        1.2378726301   -3.1988160921    4.2868627931
H        1.5831714929   -1.0994134477    8.0302460316
H        2.1799640685    0.9976006487    4.3329722542
22   

C        1.9192411232   -1.0249129862   -0.1524257395
C        0.6987345200   -1.2834366226    0.4806393929
C        3.0676421925   -0.7966049731    0.6134060499
C        1.5297348772   -2.3117811200    6.2465354247
C        0.6289114095   -1.3160455670    1.8785134933
C        2.9949935809   -0.8298253123    2.0112568962
C        1.5732877159   -2.3113380562    4.8478669039
C        1.6226726061   -1.1039199332    6.9472274372
C        1.8045147445    0.0953265597    4.8563790092
C        1.7783251658   -1.0974185842    2.6530004908
C        1.7017855179   -1.1057792903    4.1420287539
C        1.7621383877    0.1042933655    6.2554916374
Cl       1.8846812566    1.6069845561    7.1283628415
H        1.9745687619   -0.9985425930   -1.2370693686
H       -0.1953911347   -1.4560951060   -0.1115528695
H        4.0156772160   -0.5920128738    0.1241759688
H        1.4267054825   -3.2484964123    6.7870781638
H       -0.3197859976   -1.5094755572    2.3706305275
H        3.8862467158   -0.6495864484    2.6053607041
H        1.5090694125   -3.2471148465    4.3001056478
H        1.5900365745   -1.0984922138    8.0326839704
H        1.9153671505    1.0314088273    4.3178805357
22   

C        1.9066783008   -1.0356907604   -0.1520775613
C        0.6687636331   -1.1029635274    0.4965345653
C        3.0863557468   -0.9889245754    0.5989535449
C        1.7064707869   -2.3235023792    6.2452077060
C        0.6122555796   -1.1235409782    1.8952476467
C        3.0269455826   -1.0096379241    1.9976994971
C        1.7616368403   -2.3127821488    4.8469766542
C        1.6219413756   -1.1165076106    6.9487184284
C        1.6479342094    0.1025515441    4.8614924627
C        1.7912002247   -1.0771869095    2.6538733323
C        1.7327031871   -1.0985959668    4.1458371986
C        1.5923064976    0.1013520366    6.2602018796
Cl       1.4870810268    1.6033678522    7.1364863005
H        1.9518029215   -1.0193156592   -1.2373898127
H       -0.2485465624   -1.1387931140   -0.0841815163
H        4.0485166835   -0.9360982111    0.0975347775
H        1.7292482438   -3.2671150854    6.7830871567
H       -0.3479404840   -1.1751178687    2.4002994402
H        3.9421799949   -0.9727440855    2.5814124381
H        1.8273112920   -3.2465225969    4.2958792915
H        1.5788647511   -1.1189558304    8.0338219080
H        1.6251474357    1.0456661066    4.3243209516
22   

C        1.8952303715   -1.0344865808   -0.1523771289
C        0.6718790374   -0.9046110953    0.5139933442
C        3.0785054580   -1.1722699435    0.5815536152
C        1.8839040785   -2.3111933032    6.2347644387
C        0.6335979653   -0.9101546355    1.9134280494
C        3.0377428403   -1.1774550503    1.9811238818
C        1.9557371563   -2.2794311863    4.8376350007
C        1.6203217666   -1.1350758178    6.9461784994
C        1.4988210576    0.0953944293    4.8689439108
C        1.8176335017   -1.0384836922    2.6556548496
C        1.7730643706   -1.0726723899    4.1455982304
C        1.4249479507    0.0724459256    6.2666172567
Cl       1.0895539026    1.5344817060    7.1525979732
H        1.9259843237   -1.0307202056   -1.2383092257
H       -0.2486072083   -0.8017817750   -0.0535575504
H        4.0289781969   -1.2762591897    0.0660519201
H        2.0295997447   -3.2478022251    6.7655874491
H       -0.3165053066   -0.8162741637    2.4313511527
H        3.9559442677   -1.2869692163    2.5508213756
H        2.1520454640   -3.1911142795    4.2807020375
H        1.5627566283   -1.1542754992    8.0304431547
H        1.3443974652    1.0303090393    4.3392566644
22   

C        1.8883678351   -1.0377501046   -0.1529713503
C        0.6997826939   -0.7362409529    0.5200114514
C        3.0438962537   -1.3412255630    0.5746695272
C        2.0399533548   -2.2666773196    6.2409710706
C        0.6688184309   -0.7352966724    1.9196055650
C        3.0108110391   -1.3398030985    1.9744110247
C        2.1151954163   -2.2309898005    4.8441296267
C        1.6241958661   -1.1318994545    6.9462051804
C        1.3576014687    0.0652593128    4.8632907780
C        1.8270618177   -1.0272932529    2.6580241702
C        1.7857186150   -1.0595287318    4.1437948490
C        1.2792680356    0.0377320817    6.2605669385
Cl       0.7536898349    1.4476924707    7.1385365931
H        1.9131329606   -1.0391870437   -1.2390630458
H       -0.2004656115   -0.5062288412   -0.0426946803
H        3.9671500755   -1.5787609674    0.0539743068
H        2.2998633771   -3.1754839343    6.7764608515
H       -0.2585032700   -0.5118421704    2.4390073339
H        3.9096725206   -1.5763774681    2.5361443876
H        2.4256370196   -3.1152308424    4.2950887020
H        1.5631934680   -1.1546496007    8.0302131733
H        1.0886977856    0.9730061839    4.3322495008
22   

C        1.8896473367   -1.0423677489   -0.1568814850
C        0.7456762416   -0.6023038183    0.5155980584
C        2.9934453749   -1.4960957919    0.5714595383
C        2.1733434351   -2.2324632671    6.2549064063
C        0.7071759389   -0.6144591702    1.9149359956
C        2.9530915906   -1.5080303041    1.9708806535
C        2.2346862575   -2.2058628176    4.8571913082
C        1.6387046938   -1.1435457997    6.9508946966
C        1.2273524711   -0.0092892911    4.8568203437
C        1.8123664720   -1.0628142956    2.6584295290
C        1.7677294487   -1.0902956136    4.1416390383
C        1.1625881923   -0.0282516152    6.2548446610
Cl       0.4950925807    1.3279312795    7.1211246959
H        1.9201867631   -1.0329601698   -1.2427873735
H       -0.1153122290   -0.2537857270   -0.0476384106
H        3.8837686926   -1.8378733622    0.0514059999
H        2.5370631391   -3.0998286010    6.7986136892
H       -0.1919230951   -0.2829280320    2.4256456040
H        3.8195277002   -1.8545548135    2.5259670298
H        2.6378717844   -3.0610559203    4.3231135390
H        1.5887099742   -1.1595025500    8.0355882113
H        0.8631084294    0.8642351474    4.3257496799
22   

C        1.8911953480   -1.0397677928   -0.1596793698
C        0.8004839155   -0.4813553079    0.5107394832
C        2.9272382438   -1.6258708382    0.5711031679
C        2.2884854131   -2.1603329921    6.2804747237
C        0.7459671063   -0.5101844849    1.9093087604
C        2.8710959731   -1.6545894436    1.9696338687
C        2.3269167383   -2.1565655716    4.8817038118
C        1.6531997810   -1.1209373585    6.9648802294
C        1.0986388241   -0.0795031211    4.8563783107
C        1.7773603220   -1.1009347000    2.6615884441
C        1.7289932977   -1.1180829508    4.1453811169
C        1.0564502945   -0.0760699620    6.2553312276
Cl       0.2718888771    1.2261974495    7.1063034392
H        1.9342235186   -1.0167562269   -1.2449614758
H       -0.0083676092   -0.0265100982   -0.0539702636
H        3.7804818534   -2.0549770072    0.0536096531
H        2.7496659479   -2.9731096593    6.8345092234
H       -0.1216750236   -0.0839284350    2.4023369244
H        3.7005384165   -2.0960000564    2.5122717570
H        2.8109273233   -2.9834455667    4.3721746664
H        1.6213049180   -1.1193381700    8.0503763830
H        0.6480312120    0.7548909216    4.3302410358
22   

C        1.8980632469   -1.0331177172   -0.1731783890
C        0.8839418914   -0.3551754815    0.5031452180
C        2.8495527757   -1.7490047242    0.5530061216
C        2.4093029338   -2.0737045794    6.2947488976
C        0.8195491796   -0.3959394278    1.9010808049
C        2.7840440757   -1.7892654738    1.9507165067
C        2.4309130914   -2.0844159633    4.8956159343
C        1.6731217602   -1.1039915592    6.9762151040
C        0.9868920908   -0.1583877898    4.8624001301
C        1.7593974203   -1.1220681199    2.6572113154
C        1.7116182910   -1.1353078037    4.1449256150
C        0.9605245779   -0.1411368752    6.2616278784
Cl       0.0522228609    1.0823468619    7.1068198815
H        1.9484044452   -1.0008249531   -1.2579130557
H        0.1398823039    0.2038840373   -0.0571119634
H        3.6478716869   -2.2703221255    0.0325158151
H        2.9640299991   -2.8234061771    6.8519825631
H       -0.0010210343    0.1319881487    2.3722054025
H        3.5657199678   -2.3344304488    2.4659480119
H        3.0013189608   -2.8699844524    4.4143477086
H        1.6540047093   -1.0917494263    8.0619489230
H        0.4427103861    0.6293877532    4.3567419399
22   

C        1.8784171744   -1.0458569847   -0.1862066306
C        1.0060271796   -0.2077082598    0.5047600906
C        2.7142781266   -1.9009918189    0.5282931392
C        2.5507678293   -1.9574362223    6.3014593344
C        0.9693463852   -0.2243208145    1.9043124404
C        2.6769274298   -1.9169263881    1.9274394267
C        2.5905390630   -1.9439128906    4.9026564373
C        1.6757430951   -1.1164500939    6.9865284096
C        0.8840314083   -0.2522162939    4.8756588399
C        1.8012636599   -1.0769674580    2.6562394865
C        1.7601218999   -1.0926428854    4.1478339143
C        0.8386673793   -0.2601985480    6.2744908962
Cl      -0.2587672498    0.7949710456    7.1225291480
H        1.9065146155   -1.0326063701   -1.2721484277
H        0.3512007823    0.4618654156   -0.0456730009
H        3.3973493694   -2.5576185137   -0.0030176279
H        3.2037849866   -2.6253843503    6.8561989487
H        0.2653820487    0.4556820580    2.3649123711
H        3.3550120688   -2.6070209146    2.4112649962
H        3.2944073319   -2.6238054749    4.4415912724
H        1.6420115584   -1.1241000710    8.0719522416
H        0.2064463570    0.4373913779    4.3918091155
