22   

C        1.8654151126   -1.0660884652   -0.1744318585
C        1.1522270987   -0.0843874275    0.5133809859
C        2.5628530543   -2.0384040527    0.5420544825
C        2.6657757530   -1.8148234209    6.3045494135
C        1.1394482465   -0.0730449816    1.9132880421
C        2.5495684155   -2.0259418167    1.9417598731
C        2.7295918291   -1.7829406733    4.9070282501
C        1.6636553020   -1.1135361061    6.9758559127
C        0.7918049861   -0.3553006333    4.8549483011
C        1.8458659547   -1.0347861920    2.6605102600
C        1.8023724922   -1.0437055815    4.1483916348
C        0.7214039153   -0.3824892383    6.2524947018
Cl      -0.5422083074    0.4823620348    7.0841138666
H        1.8746737150   -1.0752705933   -1.2607358307
H        0.6073073656    0.6756754405   -0.0392737721
H        3.1114770527   -2.8117614875    0.0120308248
H        3.3994024841   -2.3839477475    6.8686179567
H        0.5858651410    0.7243758642    2.3946060698
H        3.0826893330   -2.8219908964    2.4475001438
H        3.5384773855   -2.3277996887    4.4348710601
H        1.6101837854   -1.1359646523    8.0602778921
H        0.0182906347    0.2009938227    4.3405300507
22   

C        1.8817478549   -1.0657794658   -0.1571826951
C        1.2826704393   -0.0051052706    0.5261875244
C        2.4482317160   -2.1209296113    0.5616141187
C        2.7324626503   -1.6791318788    6.3070251568
C        1.2513589074    0.0003645067    1.9257567691
C        2.4167699663   -2.1137942281    1.9611916288
C        2.7884021354   -1.6678720082    4.9088814893
C        1.6576279841   -1.0792116846    6.9682458382
C        0.6999761528   -0.4606607162    4.8379388509
C        1.8215456537   -1.0507702391    2.6664203553
C        1.7750222552   -1.0547873246    4.1503950299
C        0.6368226083   -0.4682755618    6.2360808847
Cl      -0.7093882425    0.2722288423    7.0576379262
H        1.9054164705   -1.0707734922   -1.2432910205
H        0.8428513161    0.8184830132   -0.0290447226
H        2.9088386402   -2.9510356386    0.0336699804
H        3.5263903083   -2.1513810567    6.8787829424
H        0.7943955823    0.8456775567    2.4299465384
H        2.8442701637   -2.9573860421    2.4930437067
H        3.6417565945   -2.1249654067    4.4185078578
H        1.6096843533   -1.0859488593    8.0531315068
H       -0.1165355919   -0.0001391288    4.2926730732
22   

C        1.8897129717   -1.0596666285   -0.1503391500
C        1.4065265040    0.0545577622    0.5422180061
C        2.3238418381   -2.1843944690    0.5576542576
C        2.7969500643   -1.5620472384    6.2942062298
C        1.3560480750    0.0424516740    1.9411845361
C        2.2730895157   -2.1946888767    1.9567398945
C        2.8332146591   -1.5736498270    4.8954165028
C        1.6720168119   -1.0636532095    6.9590704377
C        0.6272972387   -0.5893238197    4.8319910412
C        1.7841173881   -1.0842979898    2.6639067469
C        1.7452959146   -1.0927938592    4.1473274417
C        0.5833068236   -0.5743052754    6.2308789054
Cl      -0.8177392640    0.0481651155    7.0584147953
H        1.9289502307   -1.0509049855   -1.2359702582
H        1.0731125413    0.9317394914   -0.0049440881
H        2.6990832722   -3.0516652854    0.0219491081
H        3.6434982716   -1.9361659236    6.8630873141
H        0.9914974764    0.9190080283    2.4683164253
H        2.6050286013   -3.0769862952    2.4955172441
H        3.7160011230   -1.9487908581    4.3863889819
H        1.6391619701   -1.0522491356    8.0444766740
H       -0.2259853311   -0.2151729172    4.2755081207
22   

C        1.8855034495   -1.0596062507   -0.1460422502
C        1.5405666727    0.1011448130    0.5541187983
C        2.1698062021   -2.2372121530    0.5533972559
C        2.8303650666   -1.4267491478    6.2874853104
C        1.4770951358    0.0822081567    1.9524893762
C        2.1058262970   -2.2540373492    1.9519649607
C        2.8579240961   -1.4524009743    4.8886683277
C        1.6604418147   -1.0480188436    6.9551465858
C        0.5543649998   -0.7193774695    4.8311527444
C        1.7495135613   -1.0986058406    2.6620860418
C        1.7150827967   -1.1100584424    4.1483505031
C        0.5185942779   -0.6907299816    6.2301414957
Cl      -0.9352223255   -0.2112147305    7.0617294175
H        1.9354569082   -1.0456442054   -1.2311781171
H        1.3252842566    1.0185037728    0.0136596499
H        2.4409651612   -3.1388918223    0.0117403380
H        3.7173676370   -1.6963662591    6.8538455966
H        1.2199662800    0.9881249236    2.4936316964
H        2.3276507949   -3.1699233207    2.4917895096
H        3.7693698286   -1.7340220824    4.3693822605
H        1.6340815014   -1.0255564132    8.0405557274
H       -0.3318885180   -0.4409189002    4.2696066942
22   

C        1.8867623368   -1.0679404459   -0.1450571656
C        1.7113613304    0.1298648694    0.5563511454
C        2.0049029070   -2.2746462617    0.5532626173
C        2.8667302255   -1.2676093739    6.2912661633
C        1.6518194828    0.1191497109    1.9550143484
C        1.9449474664   -2.2828240917    1.9521271606
C        2.9005042663   -1.2904607791    4.8925173744
C        1.6558374648   -1.0417384248    6.9557740319
C        0.5214061523   -0.8600983738    4.8288795801
C        1.7601612421   -1.0886231026    2.6611787249
C        1.7249479228   -1.0963011851    4.1517417739
C        0.4787516475   -0.8353063121    6.2278145580
Cl      -1.0266970478   -0.5468265636    7.0557075403
H        1.9335193934   -1.0606883257   -1.2304004672
H        1.6236342786    1.0685303412    0.0167272139
H        2.1441536631   -3.2053453666    0.0107110751
H        3.7794910712   -1.4220113910    6.8598276674
H        1.5225462415    1.0494945251    2.5004497677
H        2.0392010050   -3.2192103270    2.4942904785
H        3.8393015086   -1.4573400204    4.3722400909
H        1.6241533988   -1.0222418640    8.0410977873
H       -0.3898111292   -0.6969848236    4.2618173357
22   

C        1.8770479146   -1.0790290968   -0.1465643466
C        1.9016239318    0.1358288198    0.5471119664
C        1.8125648142   -2.2849798747    0.5601396515
C        2.8893632232   -1.0907735661    6.3028693073
C        1.8618624204    0.1430628137    1.9465281020
C        1.7729046974   -2.2749138896    1.9597074144
C        2.9384748042   -1.0969406571    4.9043882578
C        1.6527462478   -1.0437505845    6.9567087091
C        0.5233633302   -1.0093516496    4.8197192331
C        1.7974820640   -1.0625048667    2.6608618016
C        1.7546367197   -1.0562277842    4.1535174278
C        0.4647954379   -1.0028531802    6.2182965168
Cl      -1.0740684908   -0.9443516101    7.0328368279
H        1.9075195692   -1.0859042203   -1.2324888003
H        1.9510867027    1.0734274916    0.0008188307
H        1.7928036783   -3.2292925377    0.0236256821
H        3.8095818475   -1.1224349222    6.8794395499
H        1.8802448070    1.0852815398    2.4865289547
H        1.7222299226   -3.2105621935    2.5090050023
H        3.8954001548   -1.1333551396    4.3916877947
H        1.6087908241   -1.0387553331    8.0417682467
H       -0.3963963289   -0.9776985504    4.2438936632
22   

C        1.8731430358   -1.0909400559   -0.1472261163
C        2.0889073826    0.1088111337    0.5392731076
C        1.6243370160   -2.2681114185    0.5667836744
C        2.8687708791   -0.9165678096    6.3128431945
C        2.0583118205    0.1291716269    1.9387864214
C        1.5943247954   -2.2449191930    1.9664022087
C        2.9311753123   -0.9102793640    4.9149019638
C        1.6320426019   -1.0465391832    6.9548325065
C        0.5293714205   -1.1658411973    4.8070943032
C        1.8187629009   -1.0492129978    2.6618444988
C        1.7598458739   -1.0256666352    4.1515139173
C        0.4575633757   -1.1734163299    6.2050126610
Cl      -1.0810104984   -1.3420711629    7.0046058042
H        1.8958232193   -1.1078983383   -1.2332308674
H        2.2773634029    1.0251399485   -0.0128043529
H        1.4528607683   -3.2001545618    0.0358733776
H        3.7792001525   -0.8234467965    6.8982350820
H        2.2185204401    1.0616585693    2.4720989760
H        1.3981990631   -3.1585267740    2.5201470326
H        3.8896242186   -0.8171914637    4.4123534628
H        1.5778622070   -1.0526415402    8.0394234982
H       -0.3804251001   -1.2668494543    4.2234964284
22   

C        1.8694949124   -1.0925269672   -0.1504212401
C        2.2486689747    0.0630297900    0.5404304090
C        1.4553727976   -2.2245703256    0.5591924437
C        2.8387930073   -0.7581387026    6.3065432096
C        2.2164639975    0.0840298570    1.9398600882
C        1.4237885527   -2.2013181312    1.9587354123
C        2.8980574286   -0.7532402354    4.9084903479
C        1.6299327157   -1.0399290403    6.9522646680
C        0.5484456509   -1.3134686820    4.8079693997
C        1.8127546079   -1.0512419071    2.6610595672
C        1.7496278639   -1.0200745335    4.1461833151
C        0.4805133762   -1.3207080940    6.2060281862
Cl      -1.0228576650   -1.6787253813    7.0102437571
H        1.8934615428   -1.1097386278   -1.2363949130
H        2.5646250191    0.9455612342   -0.0084447571
H        1.1572585896   -3.1220644199    0.0247624920
H        3.7310322323   -0.5472812754    6.8893632961
H        2.5010929290    0.9860804662    2.4734714236
H        1.1015110723   -3.0826584201    2.5055733304
H        3.8385012012   -0.5460172321    4.4061712834
H        1.5785993791   -1.0456916047    8.0369964390
H       -0.3444821946   -1.5316004704    4.2305383255
22   

C        1.8715430035   -1.0859480732   -0.1512515250
C        2.3880295098    0.0066956061    0.5515154552
C        1.3148607839   -2.1618555404    0.5467509949
C        2.8069732084   -0.6236052570    6.3006282489
C        2.3490331427    0.0215750458    1.9508241655
C        1.2761923551   -2.1451815992    1.9461498493
C        2.8568930247   -0.6267729449    4.9022175546
C        1.6425383315   -1.0328784354    6.9583087574
C        0.5855665025   -1.4481493160    4.8249215078
C        1.7967097633   -1.0559966020    2.6642813309
C        1.7438329276   -1.0338390520    4.1472658351
C        0.5277221974   -1.4477019180    6.2233734568
Cl      -0.9228403684   -1.9585166314    7.0420159859
H        1.9013278885   -1.0983361868   -1.2371483524
H        2.8166389236    0.8462345544    0.0116815273
H        0.9133795470   -3.0123972719    0.0032570193
H        3.6731806758   -0.3070614546    6.8748344545
H        2.7411979965    0.8809661238    2.4861584570
H        0.8492450467   -2.9910431130    2.4765700927
H        3.7688369774   -0.3207566249    4.3983249263
H        1.5988185933   -1.0323083091    8.0433893795
H       -0.2880363277   -1.7632577522    4.2634455025
22   

C        1.9239959643   -1.0574205895   -0.1569317942
C        1.4077211876   -2.1643794000    0.5207300266
C        2.3712364100    0.0508038305    0.5661463281
C        0.6237509278   -1.7473947805    6.2200375184
C        1.3402876313   -2.1631384872    1.9190909397
C        2.3038745675    0.0506276641    1.9644159812
C        0.6905682263   -1.7505492517    4.8223177582
C        1.5760798852   -1.0456480075    6.9636232184
C        2.6567439343   -0.3549025715    4.9160459668
C        1.7917720734   -1.0585517889    2.6638525530
C        1.7058053476   -1.0507126246    4.1459949538
C        2.5968405374   -0.3472824062    6.3143273375
Cl       3.7912891938    0.5208868569    7.2390694594
H        1.9761406733   -1.0577107902   -1.2420575004
H        1.0610793977   -3.0289378154   -0.0381413164
H        2.7670765800    0.9163818194    0.0425979926
H       -0.1706360896   -2.2877283110    6.7272245627
H        0.9504776582   -3.0433323172    2.4196608445
H        2.6374014341    0.9341506343    2.4989615600
H       -0.0706764528   -2.2883849080    4.2666365179
H        1.5284374783   -1.0406395076    8.0485329342
H        3.4721083930    0.1759627716    4.4369632593
22   

C        1.9156438928   -1.0542975845   -0.1662576071
C        1.2709780473   -2.0915269913    0.5077697934
C        2.4950772572   -0.0158038161    0.5625104252
C        0.7185243046   -1.8558911102    6.2391497441
C        1.2098223391   -2.0926732371    1.9065387034
C        2.4336011622   -0.0179131783    1.9609020246
C        0.7809404749   -1.8549160517    4.8411146162
C        1.5880793211   -1.0544030951    6.9797542026
C        2.5811410620   -0.2583024405    4.9273792951
C        1.8001875817   -1.0645926496    2.6658985752
C        1.7043515320   -1.0469758786    4.1511526046
C        2.5246966833   -0.2539979423    6.3257402377
Cl       3.6247256089    0.7363881914    7.2451336646
H        1.9627821784   -1.0532314157   -1.2516170102
H        0.8175684897   -2.9025497017   -0.0549556426
H        2.9887252514    0.8006289408    0.0430809691
H       -0.0102992075   -2.4793370280    6.7494622437
H        0.7135398318   -2.9328581597    2.3769508961
H        2.8717582910    0.8285113756    2.4764715030
H        0.0704108810   -2.4803820725    4.3141090346
H        1.5429120025   -1.0524911778    8.0647838359
H        3.3463403463    0.3552200393    4.4682297368
22   

C        1.9066897522   -1.0512421028   -0.1814875793
C        1.1046496750   -1.9741638532    0.4866264877
C        2.6490889895   -0.1307510487    0.5549118090
C        0.8516739301   -1.9949097998    6.2463883565
C        1.0447041234   -1.9772421068    1.8855660477
C        2.5889504834   -0.1340584096    1.9532761363
C        0.9131400034   -1.9899804494    4.8482249835
C        1.5934333202   -1.0745799055    6.9849147055
C        2.4552891131   -0.1477294659    4.9289771359
C        1.7831880809   -1.0595884639    2.6581512216
C        1.7155819753   -1.0676806849    4.1487511403
C        2.3985609978   -0.1469637708    6.3273484575
Cl       3.3294168049    1.0075404856    7.2424803015
H        1.9528253679   -1.0493393935   -1.2668931167
H        0.5232280185   -2.6946606596   -0.0815954949
H        3.2768697053    0.5920529399    0.0415463816
H        0.2237883380   -2.7183099062    6.7590148567
H        0.3992692477   -2.7247019102    2.3263737879
H        3.1928555221    0.6098623455    2.4556234421
H        0.3093224680   -2.7342625300    4.3468612901
H        1.5479746910   -1.0756903462    8.0699381707
H        3.0998821854    0.5991728549    4.4867137844
22   

C        1.9088809162   -1.0314833825   -0.1735918005
C        0.9646766225   -1.8224468817    0.4811012962
C        2.7932612867   -0.2547468595    0.5746719231
C        0.9965260871   -2.1238575542    6.2350906399
C        0.9020282450   -1.8333067174    1.8797617453
C        2.7297185557   -0.2660484205    1.9729326084
C        1.0591569178   -2.1112358131    4.8371189776
C        1.5965069130   -1.1024143648    6.9724765433
C        2.3147992909   -0.0581866309    4.9167786888
C        1.7727584943   -1.0465709340    2.6575503920
C        1.7304121220   -1.0857127287    4.1448657394
C        2.2562172066   -0.0640216566    6.3150452765
Cl       2.9928658587    1.2234308392    7.2293845643
H        1.9577458614   -1.0234084419   -1.2588460358
H        0.2738189889   -2.4296640688   -0.0968289074
H        3.5382735666    0.3546400732    0.0710253209
H        0.4825452044   -2.9319185378    6.7480714175
H        0.1365867235   -2.4511883765    2.3334195018
H        3.4604054612    0.3305944880    2.5061847550
H        0.5938163196   -2.9380281460    4.3139983982
H        1.5498665925   -1.1085172236    8.0574287443
H        2.8100501063    0.7856810760    4.4526752496
22   

C        1.9067455061   -1.0300725835   -0.1593741466
C        0.8725373624   -1.7061716726    0.4920847495
C        2.8818239762   -0.3680876887    0.5902994744
C        1.1245265316   -2.1862752781    6.2345777791
C        0.8132419300   -1.7187954840    1.8907538739
C        2.8211128070   -0.3809059215    1.9888181964
C        1.1819078091   -2.1745217916    4.8364758645
C        1.6113105965   -1.0979221863    6.9631943811
C        2.2089706742    0.0081458658    4.8999766445
C        1.7828766061   -1.0524508686    2.6617666373
C        1.7291517812   -1.0788016672    4.1451978944
C        2.1547370013    0.0039509415    6.2984904470
Cl       2.7538910141    1.3665740708    7.2039517119
H        1.9534592610   -1.0203319160   -1.2447035252
H        0.1111736133   -2.2201881453   -0.0876332060
H        3.6915562095    0.1531026123    0.0875959202
H        0.7046367988   -3.0431312494    6.7539401829
H       -0.0107309043   -2.2374934905    2.3695900903
H        3.6046669163    0.1226084762    2.5456909089
H        0.8135445251   -3.0389459803    4.2936855171
H        1.5685525684   -1.1024612475    8.0483081320
H        2.6144686346    0.8850535362    4.4072662741
22   

C        1.9148365697   -1.0233650776   -0.1566800086
C        0.8042241154   -1.5818695804    0.4829403708
C        2.9589490833   -0.4878099613    0.6033784315
C        1.2366796586   -2.2518681245    6.2268471923
C        0.7396445688   -1.6059214805    1.8811715718
C        2.8925802598   -0.5122147223    2.0016257255
C        1.2895635568   -2.2390873059    4.8286056275
C        1.6090496279   -1.1140092121    6.9497163094
C        2.0867042085    0.0414969545    4.8814630917
C        1.7849248260   -1.0753860717    2.6565474456
C        1.7099504169   -1.0893605757    4.1386937575
C        2.0364603439    0.0366801055    6.2802071107
Cl       2.5013358069    1.4541907206    7.1800896616
H        1.9657858437   -1.0042079845   -1.2416913437
H       -0.0107431197   -1.9942224811   -0.1050619223
H        3.8233592631   -0.0537811347    0.1090025634
H        0.9102300192   -3.1460497568    6.7503922919
H       -0.1334275221   -2.0303683691    2.3675037308
H        3.7142237888   -0.1010362972    2.5803702973
H        1.0120404645   -3.1305844318    4.2741609940
H        1.5698553484   -1.1189197178    8.0349594607
H        2.4111830774    0.9424914826    4.3709223651
22   

C        1.9207022017   -1.0215423724   -0.1551111037
C        0.7461800082   -1.4430926201    0.4766870701
C        3.0222791066   -0.6282640196    0.6119909131
C        1.3713732983   -2.2834173928    6.2362282969
C        0.6758037405   -1.4740365758    1.8745322644
C        2.9496791662   -0.6598485298    2.0098416404
C        1.4162901045   -2.2798422720    4.8376390444
C        1.6161310479   -1.1020048324    6.9447876403
C        1.9521565300    0.0774595512    4.8619041285
C        1.7803512185   -1.0916433592    2.6528279085
C        1.6962753894   -1.0956750306    4.1372228300
C        1.9094782570    0.0825682863    6.2609723336
Cl       2.2213970280    1.5518277131    7.1436087132
H        1.9762098635   -0.9964958540   -1.2397770967
H       -0.1128220981   -1.7429935268   -0.1167173746
H        3.9343742522   -0.2973360327    0.1235731859
H        1.1506315761   -3.2030357957    6.7708375109
H       -0.2409792012   -1.7914913894    2.3625712827
H        3.8074810739   -0.3535424873    2.6014564660
H        1.2378699789   -3.1988156266    4.2868628336
H        1.5831794581   -1.0994122235    8.0302451921
H        2.1799739514    0.9975975047    4.3329679578
22   

C        1.9192695488   -1.0250424539   -0.1524263963
C        0.6987464997   -1.2834892128    0.4806387749
C        3.0676788101   -0.7967745529    0.6134053941
C        1.5297345228   -2.3117806631    6.2465354062
C        0.6289114095   -1.3160455670    1.8785134933
C        2.9950195707   -0.8299456318    2.0112568826
C        1.5732877159   -2.3113380562    4.8478669039
C        1.6226719401   -1.1039191557    6.9472269996
C        1.8045144611    0.0953267473    4.8563781865
C        1.7783251658   -1.0974185842    2.6530004908
C        1.7017855179   -1.1057792903    4.1420287539
C        1.7621377959    0.1042939928    6.2554908304
Cl       1.8846805399    1.6069854252    7.1283616399
H        1.9746052830   -0.9987080494   -1.2370704860
H       -0.1953820738   -1.4561305119   -0.1115540928
H        4.0157287288   -0.5922530157    0.1241746813
H        1.4267050015   -3.2484957774    6.7870784295
H       -0.3197960774   -1.5094256179    2.3706307460
H        3.8862804262   -0.6497464705    2.6053611438
H        1.5090694114   -3.2471148466    4.3001056196
H        1.5900356486   -1.0984910640    8.0326835232
H        1.9153676099    1.0314085266    4.3178790171
22   

C        1.9066783901   -1.0356912752   -0.1520775461
C        0.6687636893   -1.1029637546    0.4965345582
C        3.0863558265   -0.9889252034    0.5989535804
C        1.7064707158   -2.3235023833    6.2452077029
C        0.6122555796   -1.1235409782    1.8952476467
C        3.0269456181   -1.0096383402    1.9976995275
C        1.7616368403   -2.3127821488    4.8469766542
C        1.6219411929   -1.1165076187    6.9487184160
C        1.6479341091    0.1025515409    4.8614924550
C        1.7912002247   -1.0771869095    2.6538733323
C        1.7327031871   -1.0985959668    4.1458371986
C        1.5923062883    0.1013520288    6.2602018683
Cl       1.4870806277    1.6033678359    7.1364862847
H        1.9518030504   -1.0193163385   -1.2373898004
H       -0.2485464890   -1.1387933042   -0.0841815517
H        4.0485167940   -0.9360991124    0.0975348411
H        1.7292481784   -3.2671150873    6.7830871596
H       -0.3479405013   -1.1751176688    2.4002994276
H        3.9421800192   -0.9727446353    2.5814124960
H        1.8273113365   -3.2465225930    4.2958792901
H        1.5788644927   -1.1189558460    8.0338218923
H        1.6251473129    1.0456660976    4.3243209369
22   

C        1.8952468809   -1.0343535831   -0.1523752041
C        0.6718861734   -0.9045569798    0.5139937658
C        3.0785264648   -1.1720958175    0.5815563496
C        1.8839052185   -2.3111930390    6.2347645052
C        0.6335979653   -0.9101546355    1.9134280494
C        3.0377577924   -1.1773315122    1.9811262726
C        1.9557371563   -2.2794311863    4.8376350007
C        1.6203245805   -1.1350751780    6.9461786046
C        1.4988237826    0.0953950158    4.8689439757
C        1.8176335017   -1.0384836922    2.6556548496
C        1.7730643706   -1.0726723899    4.1455982304
C        1.4249517224    0.0724467518    6.2666173759
Cl       1.0895601213    1.5344830369    7.1525981755
H        1.9260056017   -1.0305501958   -1.2383070360
H       -0.2486014308   -0.8017451338   -0.0535580907
H        4.0290075626   -1.2760125970    0.0660554592
H        2.0296006782   -3.2478019906    6.7655875237
H       -0.3165107846   -0.8163253210    2.4313503853
H        3.9559633430   -1.2868049310    2.5508249575
H        2.1520450018   -3.1911141847    4.2807017228
H        1.5627602395   -1.1542746633    8.0304433073
H        1.3444009116    1.0303096530    4.3392565311
22   

C        1.8884071567   -1.0376112149   -0.1529687345
C        0.6997994339   -0.7361846440    0.5200117982
C        3.0439464674   -1.3410433634    0.5746735402
C        2.0399522920   -2.2666778149    6.2409709846
C        0.6688184309   -0.7352966724    1.9196055650
C        3.0108464692   -1.3396736317    1.9744147797
C        2.1151954163   -2.2309898005    4.8441296267
C        1.6241933825   -1.1319003423    6.9462049578
C        1.3575996778    0.0652587108    4.8632905540
C        1.8270618177   -1.0272932529    2.6580241702
C        1.7857186150   -1.0595287318    4.1437948490
C        1.2792651908    0.0377311124    6.2605666614
Cl       0.7536851769    1.4476909046    7.1385361914
H        1.9131836019   -1.0390096250   -1.2390602204
H       -0.2004525743   -0.5061911373   -0.0426960175
H        3.9672204652   -1.5785028992    0.0539794982
H        2.2998628274   -3.1754842998    6.7764607417
H       -0.2585166970   -0.5118958381    2.4390065022
H        3.9097175189   -1.5762052730    2.5361508705
H        2.4256391216   -3.1152293141    4.2950873617
H        1.5631901995   -1.1546507056    8.0302129011
H        1.0886953385    0.9730052056    4.3322489125
22   

C        1.8896797627   -1.0422933634   -0.1568785174
C        0.7456899464   -0.6022738351    0.5155986923
C        2.9934867476   -1.4959978740    0.5714640572
C        2.1733415772   -2.2324644452    6.2549062634
C        0.7071759389   -0.6144591702    1.9149359956
C        2.9531204707   -1.5079604496    1.9708845936
C        2.2346862575   -2.2058628176    4.8571913082
C        1.6387001981   -1.1435481475    6.9508944221
C        1.2273486837   -0.0092910963    4.8568201000
C        1.8123664720   -1.0628142956    2.6584295290
C        1.7677294487   -1.0902956136    4.1416390383
C        1.1625826275   -0.0282543668    6.2548443506
Cl       0.4950834282    1.3279268214    7.1211242871
H        1.9202285070   -1.0328652959   -1.2427839666
H       -0.1153017740   -0.2537660263   -0.0476391749
H        3.8838266866   -1.8377347012    0.0514122039
H        2.5370620500   -3.0998295242    6.7986134395
H       -0.1919342481   -0.2829569707    2.4256448400
H        3.8195636772   -1.8544618435    2.5259744484
H        2.6378745730   -3.0610534842    4.3231115764
H        1.5887041709   -1.1595055103    8.0355878658
H        0.8631032615    0.8642326002    4.3257491080
22   

C        1.8912043171   -1.0397525892   -0.1596783336
C        0.8004876703   -0.4813492280    0.5107397515
C        2.9272496901   -1.6258507334    0.5711047296
C        2.2884847586   -2.1603335267    6.2804746881
C        0.7459671063   -0.5101844849    1.9093087604
C        2.8711039072   -1.6545750003    1.9696351772
C        2.3269167383   -2.1565655716    4.8817038118
C        1.6531980510   -1.1209385197    6.9648801706
C        1.0986371155   -0.0795041513    4.8563782553
C        1.7773603220   -1.1009347000    2.6615884441
C        1.7289932977   -1.1180829508    4.1453811169
C        1.0564479569   -0.0760714351    6.2553311667
Cl       0.2718850019    1.2261950434    7.1063033837
H        1.9342350665   -1.0167368680   -1.2449602506
H       -0.0083648225   -0.0265062228   -0.0539703843
H        3.7804978966   -2.0549485307    0.0536118548
H        2.7496656522   -2.9731100226    6.8345091417
H       -0.1216781499   -0.0839344823    2.4023366927
H        3.7005481752   -2.0959806497    2.5122743958
H        2.8109282277   -2.9834445858    4.3721738301
H        1.6213027434   -1.1193396154    8.0503763111
H        0.6480288605    0.7548894944    4.3302408746
22   

C        1.8980532724   -1.0331306364   -0.1731795686
C        0.8839377976   -0.3551805744    0.5031448908
C        2.8495398282   -1.7490220970    0.5530043476
C        2.4093028641   -2.0737046019    6.2947489104
C        0.8195491796   -0.3959394278    1.9010808049
C        2.7840349887   -1.7892781710    1.9507150512
C        2.4309130914   -2.0844159633    4.8956159343
C        1.6731216991   -1.1039916726    6.9762151965
C        0.9868920713   -0.1583878433    4.8624002901
C        1.7593974203   -1.1220681199    2.6572113154
C        1.7116182910   -1.1353078037    4.1449256150
C        0.9605245316   -0.1411369910    6.2616280269
Cl       0.0522227875    1.0823466983    7.1068200775
H        1.9483916586   -1.0008413062   -1.2579144675
H        0.1398794316    0.2038809812   -0.0571118790
H        3.6478534338   -2.2703468537    0.0325132712
H        2.9640299483   -2.8234062057    6.8519825550
H       -0.0010174062    0.1319936015    2.3722055193
H        3.5657082856   -2.3344482224    2.4659449822
H        3.0013193244   -2.8699846767    4.4143486828
H        1.6540046649   -1.0917496018    8.0619490170
H        0.4427102924    0.6293878404    4.3567424582
22   

C        1.8784171975   -1.0458569361   -0.1862066339
C        1.0060271951   -0.2077082262    0.5047600952
C        2.7142781431   -1.9009917842    0.5282931295
C        2.5507678526   -1.9574361706    6.3014593369
C        0.9693463852   -0.2243208145    1.9043124404
C        2.6769274380   -1.9169263750    1.9274394200
C        2.5905390630   -1.9439128906    4.9026564373
C        1.6757431259   -1.1164500301    6.9865284114
C        0.8840313972   -0.2522162979    4.8756588366
C        1.8012636599   -1.0769674580    2.6562394865
C        1.7601218999   -1.0926428854    4.1478339143
C        0.8386673854   -0.2601985145    6.2744908932
Cl      -0.2587672303    0.7949711030    7.1225291405
H        1.9065146447   -1.0326062885   -1.2721484315
H        0.3512007995    0.4618654699   -0.0456729727
H        3.3973493895   -2.5576184647   -0.0030176520
H        3.2037850309   -2.6253842667    6.8561989596
H        0.2653820499    0.4556820462    2.3649123884
H        3.3550120752   -2.6070209050    2.4112649865
H        3.2944073308   -2.6238054741    4.4415912688
H        1.6420116244   -1.1240999774    8.0719522454
H        0.2064463178    0.4373913392    4.3918091052
