22   

C        1.8654249691   -1.0660807822   -0.1744320793
C        1.1522309761   -0.0843843034    0.5133809955
C        2.5628662930   -2.0383940466    0.5420540392
C        2.6657755780   -1.8148236039    6.3045494114
C        1.1394482465   -0.0730449816    1.9132880421
C        2.5495780701   -2.0259347806    1.9417594198
C        2.7295918291   -1.7829406733    4.9070282501
C        1.6636549592   -1.1135366129    6.9758559519
C        0.7918046561   -0.3553011226    4.8549483816
C        1.8458659547   -1.0347861920    2.6605102600
C        1.8023724922   -1.0437055815    4.1483916348
C        0.7214034625   -0.3824899172    6.2524947668
Cl      -0.5422090889    0.4823608759    7.0841139341
H        1.8746862088   -1.0752607596   -1.2607360481
H        0.6073096679    0.6756775682   -0.0392735780
H        3.1114959106   -2.8117473580    0.0120301752
H        3.3994023424   -2.3839478934    6.8686179490
H        0.5858610043    0.7243730418    2.3946059267
H        3.0827028703   -2.8219817963    2.4474987403
H        3.5384776912   -2.3277997581    4.4348717984
H        1.6101833744   -1.1359653416    8.0602779255
H        0.0182900933    0.2009932009    4.3405303515
22   

C        1.8817629547   -1.0657703196   -0.1571827708
C        1.2826764622   -0.0051014566    0.5261876468
C        2.4482517299   -2.1209179061    0.5616138096
C        2.7324623334   -1.6791323015    6.3070251512
C        1.2513589074    0.0003645067    1.9257567691
C        2.4167843736   -2.1137860949    1.9611912078
C        2.7884021354   -1.6678720082    4.9088814893
C        1.6576273695   -1.0792127226    6.9682458589
C        0.6999756845   -0.4606615486    4.8379389096
C        1.8215456537   -1.0507702391    2.6664203553
C        1.7750222552   -1.0547873246    4.1503950299
C        0.6368218969   -0.4682768067    6.2360809220
Cl      -0.7093894020    0.2722268007    7.0576379454
H        1.9054356751   -1.0707617343   -1.2432910190
H        0.8428551227    0.8184858188   -0.0290443391
H        2.9088669904   -2.9510192271    0.0336695446
H        3.5263900981   -2.1513812862    6.8787829491
H        0.7943896032    0.8456744020    2.4299463607
H        2.8442895787   -2.9573759921    2.4930422141
H        3.6417573541   -2.1249648255    4.4185087489
H        1.6096835948   -1.0859502163    8.0531315195
H       -0.1165363357   -0.0001402756    4.2926733119
22   

C        1.8897307248   -1.0596586812   -0.1503387779
C        1.4065336429    0.0545610972    0.5422182897
C        2.3238652499   -2.1843842861    0.5576545958
C        2.7969499134   -1.5620474133    6.2942062386
C        1.3560480750    0.0424516740    1.9411845361
C        2.2731062412   -2.1946817413    1.9567399606
C        2.8332146591   -1.5736498270    4.8954165028
C        1.6720165730   -1.0636536141    6.9590704549
C        0.6272970702   -0.5893241669    4.8319910648
C        1.7841173881   -1.0842979898    2.6639067469
C        1.7452959146   -1.0927938592    4.1473274417
C        0.5833065615   -0.5743057793    6.2308789211
Cl      -0.8177396853    0.0481642786    7.0584147911
H        1.9289728619   -1.0508947689   -1.2359696924
H        1.0731172066    0.9317419972   -0.0049436244
H        2.6991164273   -3.0516510037    0.0219496348
H        3.6434981437   -1.9361660025    6.8630873490
H        0.9914905922    0.9190053044    2.4683161725
H        2.6050508973   -3.0769773609    2.4955167924
H        3.7160015780   -1.9487904457    4.3863895100
H        1.6391616975   -1.0522496256    8.0444766934
H       -0.2259856212   -0.2151734299    4.2755082276
22   

C        1.8855200809   -1.0596013508   -0.1460416527
C        1.5405733661    0.1011468793    0.5541191264
C        2.1698281612   -2.2372058472    0.5533979733
C        2.8303650685   -1.4267490864    6.2874853151
C        1.4770951358    0.0822081567    1.9524893762
C        2.1058419907   -2.2540328708    1.9519653630
C        2.8579240961   -1.4524009743    4.8886683277
C        1.6604418791   -1.0480186002    6.9551465897
C        0.5543651070   -0.7193771368    4.8311527529
C        1.7495135613   -1.0986058406    2.6620860418
C        1.7150827967   -1.1100584424    4.1483505031
C        0.5185944065   -0.6907295555    6.2301414985
Cl      -0.9352220945   -0.2112139650    7.0617294018
H        1.9354780933   -1.0456379157   -1.2311772920
H        1.3252886331    1.0185053399    0.0136600529
H        2.4409962506   -3.1388829861    0.0117414097
H        3.7173676143   -1.6963662548    6.8538456179
H        1.2199598146    0.9881232362    2.4936314425
H        2.3276717115   -3.1699176066    2.4917898567
H        3.7693699395   -1.7340220424    4.3693824424
H        1.6340815710   -1.0255561231    8.0405557294
H       -0.3318884057   -0.4409184688    4.2696067481
22   

C        1.8867733637   -1.0679388937   -0.1450567796
C        1.7113658246    0.1298655527    0.5563513456
C        2.0049172856   -2.2746443153    0.5532630847
C        2.8667302610   -1.2676091119    6.2912661630
C        1.6518194828    0.1191497109    1.9550143484
C        1.9449576384   -2.2828227298    1.9521274497
C        2.9005042663   -1.2904607791    4.8925173744
C        1.6558375634   -1.0417377850    6.9557740253
C        0.5214062700   -0.8600977403    4.8288795736
C        1.7601612421   -1.0886231026    2.6611787249
C        1.7249479228   -1.0963011851    4.1517417739
C        0.4787517913   -0.8353054608    6.2278145450
Cl      -1.0266968228   -0.5468252028    7.0557075056
H        1.9335335188   -1.0606863057   -1.2303999455
H        1.6236373438    1.0685309127    0.0167274520
H        2.1441740230   -3.2053426483    0.0107117500
H        3.7794910853   -1.4220112118    6.8598276797
H        1.5225420532    1.0494940231    2.5004496305
H        2.0392145328   -3.2192085986    2.4942908111
H        3.8393014949   -1.4573402171    4.3722401292
H        1.6241535175   -1.0222410542    8.0410977752
H       -0.3898109840   -0.6969840078    4.2618173453
22   

C        1.8770478883   -1.0790290912   -0.1465643498
C        1.9016239192    0.1358288229    0.5471119663
C        1.8125647825   -2.2849798698    0.5601396475
C        2.8893632312   -1.0907735409    6.3028693051
C        1.8618624204    0.1430628137    1.9465281020
C        1.7729046727   -2.2749138885    1.9597074121
C        2.9384748042   -1.0969406571    4.9043882578
C        1.6527462597   -1.0437505027    6.9567087089
C        0.5233633346   -1.0093516003    4.8197192337
C        1.7974820640   -1.0625048667    2.6608618016
C        1.7546367197   -1.0562277842    4.1535174278
C        0.4647954482   -1.0028530761    6.2182965175
Cl      -1.0740684741   -0.9443513935    7.0328368297
H        1.9075195303   -1.0859042122   -1.2324888044
H        1.9510866852    1.0734274970    0.0008188345
H        1.7928036408   -3.2292925297    0.0236256748
H        3.8095818617   -1.1224349135    6.8794395363
H        1.8802448274    1.0852815402    2.4865289532
H        1.7222298944   -3.2105621945    2.5090049970
H        3.8954001555   -1.1333551644    4.3916877978
H        1.6087908456   -1.0387552180    8.0417682470
H       -0.3963963239   -0.9776984917    4.2438936618
22   

C        1.8731324252   -1.0909378159   -0.1472264635
C        2.0889030702    0.1088120842    0.5392730031
C        1.6243231236   -2.2681085477    0.5667831964
C        2.8687709514   -0.9165680624    6.3128431974
C        2.0583118205    0.1291716269    1.9387864214
C        1.5943149505   -2.2449171622    1.9664018299
C        2.9311753123   -0.9102793640    4.9149019638
C        1.6320427491   -1.0465398512    6.9548325525
C        0.5293715091   -1.1658418347    4.8070943878
C        1.8187629009   -1.0492129978    2.6618444988
C        1.7598458739   -1.0256666352    4.1515139173
C        0.4575635348   -1.1734172477    6.2050127466
Cl      -1.0810102433   -1.3420727259    7.0046059389
H        1.8958096591   -1.1078954537   -1.2332312855
H        2.2773604989    1.0251406822   -0.0128043351
H        1.4528410780   -3.2001505259    0.0358727282
H        3.7792002319   -0.8234469518    6.8982350594
H        2.2185245290    1.0616577814    2.4720991234
H        1.3981859712   -3.1585241477    2.5201464851
H        3.8896241926   -0.8171912156    4.4123534619
H        1.5778624074   -1.0526423740    8.0394235460
H       -0.3804250331   -1.2668502728    4.2234965828
22   

C        1.8694784960   -1.0925208374   -0.1504219347
C        2.2486623356    0.0630323709    0.5404302151
C        1.4553512501   -2.2245624542    0.5591914585
C        2.8387931654   -0.7581386227    6.3065432148
C        2.2164639975    0.0840298570    1.9398600882
C        1.4237732397   -2.2013125763    1.9587346019
C        2.8980574286   -0.7532402354    4.9084903479
C        1.6299329481   -1.0399288371    6.9522648240
C        0.5484456678   -1.3134684917    4.8079696815
C        1.8127546079   -1.0512419071    2.6610595672
C        1.7496278639   -1.0200745335    4.1461833151
C        0.4805135330   -1.3207078256    6.2060284717
Cl      -1.0228574724   -1.6787249215    7.0102442026
H        1.8934405616   -1.1097307440   -1.2363957356
H        2.5646205959    0.9455631823   -0.0084446947
H        1.1572280609   -3.1220533579    0.0247611555
H        3.7310324727   -0.5472812323    6.8893631900
H        2.5010992987    0.9860783038    2.4734716746
H        1.1014906920   -3.0826513065    2.5055720433
H        3.8385012152   -0.5460173427    4.4061712698
H        1.5785997199   -1.0456913336    8.0369965994
H       -0.3444824254   -1.5316000633    4.2305389180
22   

C        1.8715257345   -1.0859388572   -0.1512524230
C        2.3880225737    0.0066994484    0.5515152204
C        1.3148379874   -2.1618436723    0.5467496697
C        2.8069734010   -0.6236048216    6.3006282514
C        2.3490331427    0.0215750458    1.9508241655
C        1.2761760669   -2.1451732589    1.9461487380
C        2.8568930247   -0.6267729449    4.9022175546
C        1.6425385091   -1.0328773762    6.9583090356
C        0.5855662481   -1.4481482448    4.8249220148
C        1.7967097633   -1.0559966020    2.6642813309
C        1.7438329276   -1.0338390520    4.1472658351
C        0.5277221214   -1.4477004546    6.2233739698
Cl      -0.9228406498   -1.9585141249    7.0420167967
H        1.9013058815   -1.0983243567   -1.2371494097
H        2.8166344130    0.8462373814    0.0116816394
H        0.9133472437   -3.0123805963    0.0032551916
H        3.6731810632   -0.3070611717    6.8748342498
H        2.7412047170    0.8809628889    2.4861587064
H        0.8492232949   -2.9910325542    2.4765680918
H        3.7688371265   -0.3207571117    4.3983249136
H        1.5988189154   -1.0323069823    8.0433896622
H       -0.2880372346   -1.7632560497    4.2634467113
22   

C        1.9240120446   -1.0574282673   -0.1569313414
C        1.4077276523   -2.1643826125    0.5207303418
C        2.3712576591    0.0507940260    0.5661467403
C        0.6237507545   -1.7473953150    6.2200375061
C        1.3402876313   -2.1631384872    1.9190909397
C        2.3038898327    0.0506208655    1.9644161013
C        0.6905682263   -1.7505492517    4.8223177582
C        1.5760797975   -1.0456491911    6.9636235902
C        2.6567443687   -0.3549036081    4.9160466776
C        1.7917720734   -1.0585517889    2.6638525530
C        1.7058053476   -1.0507126246    4.1459949538
C        2.5968408033   -0.3472839074    6.3143280484
Cl       3.7912898372    0.5208843891    7.2390706037
H        1.9761611249   -1.0577206638   -1.2420568366
H        1.0610835889   -3.0289402140   -0.0381408482
H        2.7671066413    0.9163680859    0.0425985736
H       -0.1706365159   -2.2877287693    6.7272242407
H        0.9504713581   -3.0433297471    2.4196604035
H        2.6374219317    0.9341422958    2.4989608837
H       -0.0706767759   -2.2883844784    4.2666365777
H        1.5284372488   -1.0406410304    8.0485333018
H        3.4721096828    0.1759613516    4.4369651087
22   

C        1.9156544343   -1.0543043000   -0.1662573766
C        1.2709822238   -2.0915297353    0.5077699748
C        2.4950913882   -0.0158125371    0.5625105895
C        0.7185241020   -1.8558913872    6.2391497325
C        1.2098223391   -2.0926732371    1.9065387034
C        2.4336114582   -0.0179192933    1.9609020199
C        0.7809404749   -1.8549160517    4.8411146162
C        1.5880789877   -1.0544035838    6.9797544765
C        2.5811409546   -0.2583026170    4.9273798160
C        1.8001875817   -1.0645926496    2.6658985752
C        1.7043515320   -1.0469758786    4.1511526046
C        2.5246963989   -0.2539983759    6.3257407533
Cl       3.6247252163    0.7363876068    7.2451344842
H        1.9627955240   -1.0532400111   -1.2516166587
H        0.8175710257   -2.9025516008   -0.0549553572
H        2.9887453571    0.8006166438    0.0430811886
H       -0.0102995078   -2.4793373789    6.7494620044
H        0.7135354615   -2.9328557576    2.3769505057
H        2.8717726657    0.8285035421    2.4764707513
H        0.0704107842   -2.4803820496    4.3141091865
H        1.5429115201   -1.0524918538    8.0647841027
H        3.3463404337    0.3552202284    4.4682312015
22   

C        1.9066897291   -1.0512420362   -0.1814875709
C        1.1046496611   -1.9741638100    0.4866264834
C        2.6490889804   -0.1307510030    0.5549118238
C        0.8516739487   -1.9949098236    6.2463883567
C        1.0447041234   -1.9772421068    1.8855660477
C        2.5889504791   -0.1340583995    1.9532761479
C        0.9131400034   -1.9899804494    4.8482249835
C        1.5934333562   -1.0745799502    6.9849147105
C        2.4552891088   -0.1477294700    4.9289771458
C        1.7831880809   -1.0595884639    2.6581512216
C        1.7155819753   -1.0676806849    4.1487511403
C        2.3985610175   -0.1469638014    6.3273484683
Cl       3.3294168339    1.0075404363    7.2424803241
H        1.9528253317   -1.0493392893   -1.2668931076
H        0.5232280033   -2.6946605976   -0.0815955191
H        3.2768696985    0.5920529975    0.0415464134
H        0.2237883648   -2.7183099340    6.7590148552
H        0.3992692598   -2.7247019263    2.3263737786
H        3.1928555233    0.6098623392    2.4556234648
H        0.3093224566   -2.7342625197    4.3468612884
H        1.5479747473   -1.0756904179    8.0699381766
H        3.0998821673    0.5991728681    4.4867138027
22   

C        1.9088722920   -1.0314740273   -0.1735923585
C        0.9646730846   -1.8224431711    0.4811011683
C        2.7932501173   -0.2547343517    0.5746710371
C        0.9965258380   -2.1238578118    6.2350906192
C        0.9020282450   -1.8333067174    1.8797617453
C        2.7297107161   -0.2660393039    1.9729318536
C        1.0591569178   -2.1112358131    4.8371189776
C        1.5965064609   -1.1024147870    6.9724768117
C        2.3147990992   -0.0581867514    4.9167792156
C        1.7727584943   -1.0465709340    2.6575503920
C        1.7304121220   -1.0857127287    4.1448657394
C        2.2562167844   -0.0640220078    6.3150457964
Cl       2.9928652471    1.2234303788    7.2293854036
H        1.9577347870   -1.0233965735   -1.2588466853
H        0.2738165209   -2.4296617927   -0.0968288100
H        3.5382578035    0.3546578624    0.0710240286
H        0.4825448956   -2.9319189119    6.7480711535
H        0.1365899100   -2.4511923301    2.3334194179
H        3.4603952981    0.3306072690    2.5061829890
H        0.5938163353   -2.9380282183    4.3139985495
H        1.5498659641   -1.1085178287    8.0574290038
H        2.8100501861    0.7856812454    4.4526767272
22   

C        1.9067351401   -1.0300580384   -0.1593747796
C        0.8725330817   -1.7061658579    0.4920846159
C        2.8818106042   -0.3680684125    0.5902984730
C        1.1245259748   -2.1862754919    6.2345777526
C        0.8132419300   -1.7187954840    1.8907538739
C        2.8211034508   -0.3808920523    1.9888173120
C        1.1819078091   -2.1745217916    4.8364758645
C        1.6113093284   -1.0979223862    6.9631946962
C        2.2089695429    0.0081461455    4.8999772783
C        1.7828766061   -1.0524508686    2.6617666373
C        1.7291517812   -1.0788016672    4.1451978944
C        2.1547353859    0.0039510163    6.2984910616
Cl       2.7538883465    1.3665743818    7.2039526787
H        1.9534459595   -1.0203134058   -1.2447042486
H        0.1111705416   -2.2201844353   -0.0876330623
H        3.6915374064    0.1531299410    0.0875945159
H        0.7046363515   -3.0431316891    6.7539398722
H       -0.0107272581   -2.2374992599    2.3695900587
H        3.6046551552    0.1226272287    2.5456889182
H        0.8135450485   -3.0389462403    4.2936856091
H        1.5685509428   -1.1024616000    8.0483084335
H        2.6144669580    0.8850546170    4.4072679894
22   

C        1.9148271600   -1.0233478763   -0.1566804768
C        0.8042201845   -1.5818626793    0.4829403081
C        2.9589370007   -0.4877872859    0.6033776803
C        1.2366791855   -2.2518683082    6.2268471691
C        0.7396445688   -1.6059214805    1.8811715718
C        2.8925717880   -0.5121985243    2.0016250290
C        1.2895635568   -2.2390873059    4.8286056275
C        1.6090484661   -1.1140093813    6.9497165388
C        2.0867030795    0.0414971859    4.8814635715
C        1.7849248260   -1.0753860717    2.6565474456
C        1.7099504169   -1.0893605757    4.1386937575
C        2.0364587753    0.0366801729    6.2802075744
Cl       2.5013331226    1.4541909927    7.1800903884
H        1.9657737332   -1.0041860323   -1.2416918563
H       -0.0107460269   -1.9942180119   -0.1050616996
H        3.8233422820   -0.0537490006    0.1090015467
H        0.9102297114   -3.1460501259    6.7503920535
H       -0.1334241972   -2.0303751004    2.3675038025
H        3.7142130858   -0.1010146506    2.5803688708
H        1.0120409637   -3.1305845793    4.2741609933
H        1.5698538655   -1.1189200180    8.0349596784
H        2.4111812826    0.9424923299    4.3709235539
22   

C        1.9206959691   -1.0215260583   -0.1551112704
C        0.7461773913   -1.4430860155    0.4766870780
C        3.0222710704   -0.6282425734    0.6119906349
C        1.3713732226   -2.2834175319    6.2362282959
C        0.6758037405   -1.4740365758    1.8745322644
C        2.9496734769   -0.6598332615    2.0098413355
C        1.4162901045   -2.2798422720    4.8376390444
C        1.6161308997   -1.1020050571    6.9447877719
C        1.9521563068    0.0774595346    4.8619043853
C        1.7803512185   -1.0916433592    2.6528279085
C        1.6962753894   -1.0956750306    4.1372228300
C        1.9094780185    0.0825681289    6.2609725840
Cl       2.2213966235    1.5518275179    7.1436090895
H        1.9762018776   -0.9964750483   -1.2397772501
H       -0.1128240512   -1.7429891511   -0.1167172044
H        3.9343629539   -0.2973056570    0.1235728625
H        1.1506315120   -3.2030359943    6.7708374138
H       -0.2409769879   -1.7914977094    2.3625713218
H        3.8074737779   -0.3535221496    2.6014558659
H        1.2378700698   -3.1988156344    4.2868628225
H        1.5831792913   -1.0994125602    8.0302453237
H        2.1799734311    0.9975977324    4.3329685203
22   

C        1.9192672553   -1.0250319717   -0.1524263419
C        0.6987455366   -1.2834849552    0.4806388238
C        3.0676758494   -0.7967608081    0.6134054483
C        1.5297347474   -2.3117807309    6.2465354120
C        0.6289114095   -1.3160455670    1.8785134933
C        2.9950174634   -0.8299358641    2.0112568841
C        1.5732877159   -2.3113380562    4.8478669039
C        1.6226724609   -1.1039192842    6.9472270583
C        1.8045149255    0.0953266801    4.8563782796
C        1.7783251658   -1.0974185842    2.6530004908
C        1.7017855179   -1.1057792903    4.1420287539
C        1.7621384520    0.1042938661    6.2554909287
Cl       1.8846815800    1.6069852368    7.1283617870
H        1.9746023461   -0.9986946762   -1.2370703952
H       -0.1953827989   -1.4561276485   -0.1115539974
H        4.0157245653   -0.5922335703    0.1241747881
H        1.4267051836   -3.2484958632    6.7870783943
H       -0.3197952652   -1.5094296577    2.3706307223
H        3.8862776939   -0.6497334768    2.6053611054
H        1.5090692352   -3.2471148318    4.3001056172
H        1.5900363187   -1.0984912500    8.0326835882
H        1.9153681493    1.0314084906    4.3178791781
22   

C        1.9066783539   -1.0356911322   -0.1520775541
C        0.6687636662   -1.1029636852    0.4965345606
C        3.0863557968   -0.9889250504    0.5989535624
C        1.7064707635   -2.3235023855    6.2452077041
C        0.6122555796   -1.1235409782    1.8952476467
C        3.0269456070   -1.0096382505    1.9976995124
C        1.7616368403   -2.3127821488    4.8469766542
C        1.6219413083   -1.1165076170    6.9487184195
C        1.6479341613    0.1025515419    4.8614924542
C        1.7912002247   -1.0771869095    2.6538733323
C        1.7327031871   -1.0985959668    4.1458371986
C        1.5923064151    0.1013520313    6.2602018712
Cl       1.4870808808    1.6033678450    7.1364862893
H        1.9518029959   -1.0193161351   -1.2373898082
H       -0.2485465203   -1.1387932300   -0.0841815374
H        4.0485167537   -0.9360988896    0.0975348101
H        1.7292482265   -3.2671150926    6.7830871552
H       -0.3479404955   -1.1751177120    2.4002994342
H        3.9421800136   -0.9727445142    2.5814124697
H        1.8273113046   -3.2465225934    4.2958792869
H        1.5788646567   -1.1189558405    8.0338218983
H        1.6251473669    1.0456660945    4.3243209287
22   

C        1.8952454766   -1.0343645334   -0.1523753803
C        0.6718855555   -0.9045614321    0.5139937326
C        3.0785247037   -1.1721101330    0.5815560931
C        1.8839048607   -2.3111931008    6.2347644872
C        0.6335979653   -0.9101546355    1.9134280494
C        3.0377565565   -1.1773416461    1.9811260522
C        1.9557371563   -2.2794311863    4.8376350007
C        1.6203237390   -1.1350753298    6.9461785584
C        1.4988230496    0.0953948703    4.8689439354
C        1.8176335017   -1.0384836922    2.6556548496
C        1.7730643706   -1.0726723899    4.1455982304
C        1.4249506694    0.0724465556    6.2666173149
Cl       1.0895584261    1.5344827240    7.1525980688
H        1.9260037731   -1.0305642226   -1.2383072360
H       -0.2486019516   -0.8017481531   -0.0535580236
H        4.0290050997   -1.2760328924    0.0660551135
H        2.0296003907   -3.2478020366    6.7655875150
H       -0.3165103297   -0.8163211009    2.4313504545
H        3.9559617806   -1.2868183970    2.5508246229
H        2.1520452716   -3.1911141551    4.2807017694
H        1.5627591414   -1.1542748551    8.0304432451
H        1.3443999669    1.0303094717    4.3392564903
22   

C        1.8884023206   -1.0376282860   -0.1529690600
C        0.6997973774   -0.7361915643    0.5200117539
C        3.0439402960   -1.3410657453    0.5746730392
C        2.0399522408   -2.2666778198    6.2409709840
C        0.6688184309   -0.7352966724    1.9196055650
C        3.0108421177   -1.3396895328    1.9744143117
C        2.1151954163   -2.2309898005    4.8441296267
C        1.6241931832   -1.1319004089    6.9462049598
C        1.3575993415    0.0652585917    4.8632905587
C        1.8270618177   -1.0272932529    2.6580241702
C        1.7857186150   -1.0595287318    4.1437948490
C        1.2792648032    0.0377309793    6.2605666606
Cl       0.7536845216    1.4476906823    7.1385361760
H        1.9131773693   -1.0390314413   -1.2390605737
H       -0.2004541764   -0.5061957785   -0.0426958583
H        3.9672118149   -1.5785345913    0.0539788445
H        2.2998628144   -3.1754842918    6.7764607441
H       -0.2585150545   -0.5118892423    2.4390065906
H        3.9097119952   -1.5762264272    2.5361500610
H        2.4256390687   -3.1152294409    4.2950875444
H        1.5631899941   -1.1546507820    8.0302129020
H        1.0886948597    0.9730050633    4.3322489587
22   

C        1.8896719587   -1.0423112579   -0.1568792362
C        0.7456866520   -0.6022810398    0.5155985400
C        2.9934767872   -1.4960214425    0.5714629614
C        2.1733417355   -2.2324643060    6.2549062817
C        0.7071759389   -0.6144591702    1.9149359956
C        2.9531135141   -1.5079772737    1.9708836375
C        2.2346862575   -2.2058628176    4.8571913082
C        1.6387006651   -1.1435478835    6.9508944624
C        1.2273490832   -0.0092909058    4.8568201509
C        1.8123664720   -1.0628142956    2.6584295290
C        1.7677294487   -1.0902956136    4.1416390383
C        1.1625832407   -0.0282540543    6.2548444046
Cl       0.4950845051    1.3279273626    7.1211243475
H        1.9202184624   -1.0328881181   -1.2427847912
H       -0.1153042851   -0.2537707465   -0.0476389850
H        3.8838127311   -1.8377680634    0.0514107023
H        2.5370620551   -3.0998294319    6.7986134842
H       -0.1919315724   -0.2829500062    2.4256450078
H        3.8195550147   -1.8544842387    2.5259726453
H        2.6378741248   -3.0610539732    4.3231120621
H        1.5887047644   -1.1595051927    8.0355879114
H        0.8631038369    0.8642329132    4.3257492567
22   

C        1.8911953411   -1.0397677262   -0.1596793843
C        0.8004838994   -0.4813552916    0.5107394839
C        2.9272382575   -1.6258707448    0.5711031392
C        2.2884850985   -2.1603332060    6.2804747140
C        0.7459671063   -0.5101844849    1.9093087604
C        2.8710959908   -1.6545893876    1.9696338450
C        2.3269167383   -2.1565655716    4.8817038118
C        1.6531989470   -1.1209378999    6.9648802274
C        1.0986379274   -0.0795036637    4.8563783285
C        1.7773603220   -1.1009347000    2.6615884441
C        1.7289932977   -1.1180829508    4.1453811169
C        1.0564491040   -0.0760707057    6.2553312359
Cl       0.2718868783    1.2261962151    7.1063034534
H        1.9342234972   -1.0167561411   -1.2449614914
H       -0.0083676521   -0.0265101164   -0.0539702519
H        3.7804818740   -2.0549768701    0.0536095990
H        2.7496657880   -2.9731097936    6.8345092013
H       -0.1216750768   -0.0839284984    2.4023368785
H        3.7005384612   -2.0959999681    2.5122717136
H        2.8109276554   -2.9834453744    4.3721746721
H        1.6213038946   -1.1193388406    8.0503763747
H        0.6480300020    0.7548902467    4.3302411178
22   

C        1.8980456819   -1.0331406439   -0.1731804451
C        0.8839347053   -0.3551845336    0.5031446281
C        2.8495299430   -1.7490354997    0.5530030446
C        2.4093030334   -2.0737044299    6.2947489233
C        0.8195491796   -0.3959394278    1.9010808049
C        2.7840280472   -1.7892879151    1.9507139828
C        2.4309130914   -2.0844159633    4.8956159343
C        1.6731221678   -1.1039913439    6.9762152648
C        0.9868925418   -0.1583875216    4.8624004005
C        1.7593974203   -1.1220681199    2.6572113154
C        1.7116182910   -1.1353078037    4.1449256150
C        0.9605251735   -0.1411365519    6.2616281294
Cl       0.0522238534    1.0823474385    7.1068202020
H        1.9483819628   -1.0008540059   -1.2579155208
H        0.1398773152    0.2038785765   -0.0571118849
H        3.6478394722   -2.2703659449    0.0325114105
H        2.9640300750   -2.8234060586    6.8519825746
H       -0.0010146317    0.1319977674    2.3722056217
H        3.5656993444   -2.3344618433    2.4659427422
H        3.0013193608   -2.8699850260    4.4143494283
H        1.6540052798   -1.0917492199    8.0619490856
H        0.4427108686    0.6293883611    4.3567428080
22   

C        1.8784171958   -1.0458569362   -0.1862066343
C        1.0060271940   -0.2077082264    0.5047600951
C        2.7142781416   -1.9009917861    0.5282931282
C        2.5507678531   -1.9574361701    6.3014593371
C        0.9693463852   -0.2243208145    1.9043124404
C        2.6769274358   -1.9169263767    1.9274394194
C        2.5905390630   -1.9439128906    4.9026564373
C        1.6757431266   -1.1164500289    6.9865284112
C        0.8840313942   -0.2522163016    4.8756588364
C        1.8012636599   -1.0769674580    2.6562394865
C        1.7601218999   -1.0926428854    4.1478339143
C        0.8386673837   -0.2601985153    6.2744908930
Cl      -0.2587672336    0.7949711022    7.1225291385
H        1.9065146435   -1.0326062894   -1.2721484319
H        0.3512007988    0.4618654706   -0.0456729718
H        3.3973493859   -2.5576184667   -0.0030176536
H        3.2037850333   -2.6253842642    6.8561989597
H        0.2653820515    0.4556820470    2.3649123898
H        3.3550120722   -2.6070209084    2.4112649851
H        3.2944073316   -2.6238054726    4.4415912678
H        1.6420116265   -1.1240999754    8.0719522453
H        0.2064463118    0.4373913324    4.3918091047
