22   

C        1.8654191616   -1.0660853083   -0.1744319443
C        1.1522286818   -0.0843861488    0.5133809905
C        2.5628585330   -2.0383999150    0.5420543028
C        2.6657756197   -1.8148235765    6.3045494051
C        1.1394482465   -0.0730449816    1.9132880421
C        2.5495724401   -2.0259388835    1.9417596878
C        2.7295918291   -1.7829406733    4.9070282501
C        1.6636549886   -1.1135365433    6.9758559095
C        0.7918046855   -0.3553010596    4.8549483124
C        1.8458659547   -1.0347861920    2.6605102600
C        1.8023724922   -1.0437055815    4.1483916348
C        0.7214034869   -0.3824898430    6.2524947016
Cl      -0.5422090716    0.4823609531    7.0841138517
H        1.8746788256   -1.0752665661   -1.2607359144
H        0.6073082751    0.6756762895   -0.0392736964
H        3.1114848609   -2.8117556452    0.0120305628
H        3.3994024016   -2.3839478416    6.8686179429
H        0.5858634266    0.7243746865    2.3946060271
H        3.0826949964   -2.8219870821    2.4474995724
H        3.5384775710   -2.3277996366    4.4348713727
H        1.6101833887   -1.1359652316    8.0602778825
H        0.0182901919    0.2009932418    4.3405301245
22   

C        1.8817554091   -1.0657748699   -0.1571827374
C        1.2826734551   -0.0051033490    0.5261875873
C        2.4482417235   -2.1209237424    0.5616139534
C        2.7324624531   -1.6791321071    6.3070251544
C        1.2513589074    0.0003645067    1.9257567691
C        2.4167771765   -2.1137901515    1.9611914099
C        2.7884021354   -1.6678720082    4.9088814893
C        1.6576275812   -1.0792122965    6.9682458345
C        0.6999758392   -0.4606612536    4.8379388562
C        1.8215456537   -1.0507702391    2.6664203553
C        1.7750222552   -1.0547873246    4.1503950299
C        0.6368221296   -0.4682763414    6.2360808742
Cl      -0.7093890357    0.2722275329    7.0576378740
H        1.9054260608   -1.0707675850   -1.2432910246
H        0.8428532032    0.8184844223   -0.0290445248
H        2.9088528107   -2.9510274130    0.0336697430
H        3.5263901836   -2.1513811366    6.8787829585
H        0.7943925794    0.8456759677    2.4299464578
H        2.8442798937   -2.9573810001    2.4930429487
H        3.6417570028   -2.1249650769    4.4185083158
H        1.6096838490   -1.0859496451    8.0531314974
H       -0.1165360605   -0.0001398720    4.2926731520
22   

C        1.8897238618   -1.0596617126   -0.1503389369
C        1.4065308883    0.0545598365    0.5422181823
C        2.3238561712   -2.1843882026    0.5576544357
C        2.7969499288   -1.5620473809    6.2942062359
C        1.3560480750    0.0424516740    1.9411845361
C        2.2730997343   -2.1946845059    1.9567399113
C        2.8332146591   -1.5736498270    4.8954165028
C        1.6720165665   -1.0636535859    6.9590704334
C        0.6272970587   -0.5893241909    4.8319910376
C        1.7841173881   -1.0842979898    2.6639067469
C        1.7452959146   -1.0927938592    4.1473274417
C        0.5833065340   -0.5743057950    6.2308788917
Cl      -0.8177397504    0.0481642149    7.0584147417
H        1.9289641321   -1.0508986459   -1.2359699263
H        1.0731154295    0.9317410774   -0.0049437817
H        2.6991035813   -3.0516564928    0.0219493822
H        3.6434981550   -1.9361659642    6.8630873535
H        0.9914932564    0.9190063487    2.4683162871
H        2.6050422263   -3.0769808332    2.4955169281
H        3.7160014290   -1.9487905468    4.3863893091
H        1.6391616723   -1.0522495898    8.0444766673
H       -0.2259856074   -0.2151734732    4.2755081502
22   

C        1.8855160052   -1.0596025266   -0.1460418063
C        1.5405717170    0.1011463861    0.5541190486
C        2.1698227746   -2.2372073749    0.5533977811
C        2.8303650611   -1.4267490479    6.2874853118
C        1.4770951358    0.0822081567    1.9524893762
C        2.1058381083   -2.2540339722    1.9519652504
C        2.8579240961   -1.4524009743    4.8886683277
C        1.6604418571   -1.0480185964    6.9551465814
C        0.5543650879   -0.7193771788    4.8311527383
C        1.7495135613   -1.0986058406    2.6620860418
C        1.7150827967   -1.1100584424    4.1483505031
C        0.5185943715   -0.6907296086    6.2301414843
Cl      -0.9352221572   -0.2112141061    7.0617293895
H        1.9354729078   -1.0456394158   -1.2311775008
H        1.3252875492    1.0185049763    0.0136599715
H        2.4409886466   -3.1388851186    0.0117411181
H        3.7173676199   -1.6963661656    6.8538456133
H        1.2199614117    0.9881236536    2.4936315042
H        2.3276665367   -3.1699190196    2.4917897467
H        3.7693699168   -1.7340220665    4.3693824135
H        1.6340815477   -1.0255561093    8.0405557228
H       -0.3318884046   -0.4409185144    4.2696066983
22   

C        1.8867719611   -1.0679391234   -0.1450568194
C        1.7113652526    0.1298654424    0.5563513166
C        2.0049155175   -2.2746445825    0.5532630476
C        2.8667302411   -1.2676092737    6.2912661635
C        1.6518194828    0.1191497109    1.9550143484
C        1.9449564315   -2.2828228991    1.9521274321
C        2.9005042663   -1.2904607791    4.8925173744
C        1.6558375191   -1.0417380842    6.9557740263
C        0.5214062489   -0.8600978657    4.8288795732
C        1.7601612421   -1.0886231026    2.6611787249
C        1.7249479228   -1.0963011851    4.1517417739
C        0.4787517497   -0.8353057171    6.2278145468
Cl      -1.0266968858   -0.5468255794    7.0557075072
H        1.9335316772   -1.0606866207   -1.2304000045
H        1.6236369435    1.0685308054    0.0167273996
H        2.1441715057   -3.2053430196    0.0107117023
H        3.7794910659   -1.4220114024    6.8598276725
H        1.5225425590    1.0494940874    2.5004496409
H        2.0392129431   -3.2192088031    2.4942908025
H        3.8393015018   -1.4573401373    4.3722401158
H        1.6241534517   -1.0222414972    8.0410977789
H       -0.3898110040   -0.6969841273    4.2618173398
22   

C        1.8770478920   -1.0790290990   -0.1465643451
C        1.9016239248    0.1358288179    0.5471119663
C        1.8125647828   -2.2849798775    0.5601396520
C        2.8893632166   -1.0907735656    6.3028693064
C        1.8618624204    0.1430628137    1.9465281020
C        1.7729046776   -2.2749138890    1.9597074152
C        2.9384748042   -1.0969406571    4.9043882578
C        1.6527462404   -1.0437506059    6.9567087089
C        0.5233633309   -1.0093516641    4.8197192331
C        1.7974820640   -1.0625048667    2.6608618016
C        1.7546367197   -1.0562277842    4.1535174278
C        0.4647954348   -1.0028532143    6.2182965143
Cl      -1.0740684933   -0.9443516767    7.0328368231
H        1.9075195373   -1.0859042249   -1.2324887986
H        1.9510867012    1.0734274891    0.0008188292
H        1.7928036252   -3.2292925402    0.0236256843
H        3.8095818346   -1.1224349142    6.8794395507
H        1.8802448215    1.0852815405    2.4865289530
H        1.7222298940   -3.2105621910    2.5090050042
H        3.8954001574   -1.1333551299    4.3916877989
H        1.6087908157   -1.0387553579    8.0417682462
H       -0.3963963292   -0.9776985765    4.2438936626
22   

C        1.8731336067   -1.0909381260   -0.1472264033
C        2.0889035582    0.1088119341    0.5392730114
C        1.6243246708   -2.2681089150    0.5667832885
C        2.8687709325   -0.9165680100    6.3128431990
C        2.0583118205    0.1291716269    1.9387864214
C        1.5943160508   -2.2449174033    1.9664019039
C        2.9311753123   -0.9102793640    4.9149019638
C        1.6320427086   -1.0465397056    6.9548325424
C        0.5293714885   -1.1658417181    4.8070943695
C        1.8187629009   -1.0492129978    2.6618444988
C        1.7598458739   -1.0256666352    4.1515139173
C        0.4575634925   -1.1734170539    6.2050127270
Cl      -1.0810103178   -1.3420723624    7.0046058993
H        1.8958111724   -1.1078958674   -1.2332312171
H        2.2773608531    1.0251405328   -0.0128043704
H        1.4528432790   -3.2001510394    0.0358728655
H        3.7792002108   -0.8234469202    6.8982350677
H        2.2185240820    1.0616578807    2.4720990842
H        1.3981874453   -3.1585244419    2.5201466042
H        3.8896242030   -0.8171912643    4.4123534724
H        1.5778623526   -1.0526421823    8.0394235359
H       -0.3804250507   -1.2668501181    4.2234965506
22   

C        1.8694825473   -1.0925223424   -0.1504217657
C        2.2486639662    0.0630317408    0.5404302627
C        1.4553565917   -2.2245643987    0.5591916977
C        2.8387931113   -0.7581386284    6.3065432143
C        2.2164639975    0.0840298570    1.9398600882
C        1.4237770480   -2.2013139553    1.9587347994
C        2.8980574286   -0.7532402354    4.9084903479
C        1.6299328603   -1.0399288352    6.9522647794
C        0.5484456499   -1.3134684986    4.8079696030
C        1.8127546079   -1.0512419071    2.6610595672
C        1.7496278639   -1.0200745335    4.1461833151
C        0.4805134622   -1.3207078113    6.2060283891
Cl      -1.0228575859   -1.6787248418    7.0102440685
H        1.8934457392   -1.1097326755   -1.2363955358
H        2.5646216750    0.9455627108   -0.0084447101
H        1.1572356293   -3.1220560901    0.0247614764
H        3.7310324004   -0.5472812447    6.8893632204
H        2.5010977283    0.9860788360    2.4734716142
H        1.1014957537   -3.0826530715    2.5055723573
H        3.8385012162   -0.5460173225    4.4061712786
H        1.5785995867   -1.0456913323    8.0369965535
H       -0.3444823798   -1.5316001156    4.2305387569
22   

C        1.8715324647   -1.0859424674   -0.1512520666
C        2.3880252894    0.0066979324    0.5515153102
C        1.3148468772   -2.1618483143    0.5467502009
C        2.8069733086   -0.6236049442    6.3006282517
C        2.3490331427    0.0215750458    1.9508241655
C        1.2761824261   -2.1451765183    1.9461491823
C        2.8568930247   -0.6267729449    4.9022175546
C        1.6425384184   -1.0328777382    6.9583089249
C        0.5855663297   -1.4481486132    4.8249218123
C        1.7967097633   -1.0559966020    2.6642813309
C        1.7438329276   -1.0338390520    4.1472658351
C        0.5277221373   -1.4477009852    6.2233737648
Cl      -0.9228405417   -1.9585150903    7.0420164751
H        1.9013144535   -1.0983289976   -1.2371489902
H        2.8166362129    0.8462362379    0.0116815816
H        0.9133598445   -3.0123871196    0.0032559290
H        3.6731808835   -0.3070612085    6.8748343343
H        2.7412021207    0.8809641418    2.4861586049
H        0.8492317941   -2.9910366773    2.4765688923
H        3.7688370699   -0.3207569262    4.3983249188
H        1.5988187518   -1.0323074341    8.0433895500
H       -0.2880369032   -1.7632566384    4.2634462290
22   

C        1.9240040420   -1.0574244608   -0.1569315682
C        1.4077244411   -2.1643810268    0.5207301875
C        2.3712470726    0.0507989005    0.5661465291
C        0.6237509427   -1.7473952009    6.2200375151
C        1.3402876313   -2.1631384872    1.9190909397
C        2.3038822263    0.0506242510    1.9644160393
C        0.6905682263   -1.7505492517    4.8223177582
C        1.5760800344   -1.0456488856    6.9636234134
C        2.6567442641   -0.3549032492    4.9160463274
C        1.7917720734   -1.0585517889    2.6638525530
C        1.7058053476   -1.0507126246    4.1459949538
C        2.5968408635   -0.3472834359    6.3143277049
Cl       3.7912898143    0.5208851839    7.2390700581
H        1.9761509494   -1.0577157792   -1.2420571691
H        1.0610815205   -3.0289390453   -0.0381410680
H        2.7670916592    0.9163749153    0.0425982696
H       -0.1706361831   -2.2877287256    6.7272243985
H        0.9504744832   -3.0433310222    2.4196606225
H        2.6374117163    0.9341464469    2.4989612248
H       -0.0706766679   -2.2883846162    4.2666365460
H        1.5284376327   -1.0406406777    8.0485331305
H        3.4721091663    0.1759618764    4.4369641842
22   

C        1.9156485013   -1.0543005088   -0.1662575002
C        1.2709798827   -2.0915281875    0.5077698736
C        2.4950833798   -0.0158075857    0.5625105035
C        0.7185242146   -1.8558912182    6.2391497390
C        1.2098223391   -2.0926732371    1.9065387034
C        2.4336055812   -0.0179158011    1.9609020272
C        0.7809404749   -1.8549160517    4.8411146162
C        1.5880792028   -1.0544033260    6.9797543180
C        2.5811410808   -0.2583025884    4.9273795154
C        1.8001875817   -1.0645926496    2.6658985752
C        1.7043515320   -1.0469758786    4.1511526046
C        2.5246966396   -0.2539982110    6.3257404569
Cl       3.6247256050    0.7363877590    7.2451340147
H        1.9627880434   -1.0532351810   -1.2516168506
H        0.8175696325   -2.9025505415   -0.0549555182
H        2.9887339690    0.8006236225    0.0430810777
H       -0.0102993580   -2.4793371359    6.7494621516
H        0.7135379384   -2.9328571177    2.3769507293
H        2.8717644442    0.8285080209    2.4764711916
H        0.0704108259   -2.4803820438    4.3141090958
H        1.5429117970   -1.0524914794    8.0647839474
H        3.3463404686    0.3552200157    4.4682303501
22   

C        1.9066897588   -1.0512420480   -0.1814875644
C        1.1046496839   -1.9741638180    0.4866264851
C        2.6490889903   -0.1307510019    0.5549118343
C        0.8516739285   -1.9949097875    6.2463883557
C        1.0447041234   -1.9772421068    1.8855660477
C        2.5889504734   -0.1340583920    1.9532761549
C        0.9131400034   -1.9899804494    4.8482249835
C        1.5934333163   -1.0745798922    6.9849147053
C        2.4552891229   -0.1477294725    4.9289771392
C        1.7831880809   -1.0595884639    2.6581512216
C        1.7155819753   -1.0676806849    4.1487511403
C        2.3985610041   -0.1469637688    6.3273484601
Cl       3.3294168198    1.0075404794    7.2424803060
H        1.9528253832   -1.0493393114   -1.2668931010
H        0.5232280340   -2.6946606115   -0.0815955183
H        3.2768697081    0.5920530024    0.0415464300
H        0.2237883326   -2.7183098854    6.7590148573
H        0.3992692559   -2.7247019228    2.3263737785
H        3.1928554947    0.6098623631    2.4556234762
H        0.3093224683   -2.7342625275    4.3468612863
H        1.5479746776   -1.0756903282    8.0699381699
H        3.0998822088    0.5991728394    4.4867137955
22   

C        1.9088772375   -1.0314793782   -0.1735920341
C        0.9646750904   -1.8224452611    0.4811012396
C        2.7932565916   -0.2547415961    0.5746715562
C        0.9965259285   -2.1238576231    6.2350906288
C        0.9020282450   -1.8333067174    1.8797617453
C        2.7297152797   -0.2660446091    1.9729322971
C        1.0591569178   -2.1112358131    4.8371189776
C        1.5965065818   -1.1024144500    6.9724766477
C        2.3147990431   -0.0581865810    4.9167788955
C        1.7727584943   -1.0465709340    2.6575503920
C        1.7304121220   -1.0857127287    4.1448657394
C        2.2562168108   -0.0640216685    6.3150454791
Cl       2.9928651983    1.2234308922    7.2293848884
H        1.9577411120   -1.0234033283   -1.2588463107
H        0.2738178774   -2.4296630108   -0.0968288782
H        3.5382669644    0.3546475306    0.0710247860
H        0.4825450549   -2.9319186658    6.7480713181
H        0.1365880745   -2.4511900543    2.3334194651
H        3.4604012390    0.3305997931    2.5061840318
H        0.5938163803   -2.9380282092    4.3139984647
H        1.5498661527   -1.1085173698    8.0574288429
H        2.8100499117    0.7856812698    4.4526758318
22   

C        1.9067402910   -1.0300652523   -0.1593744608
C        0.8725352051   -1.7061687309    0.4920846820
C        2.8818172528   -0.3680779877    0.5902989771
C        1.1245260713   -2.1862753031    6.2345777591
C        0.8132419300   -1.7187954840    1.8907538739
C        2.8211080952   -0.3808989372    1.9888177580
C        1.1819078091   -2.1745217916    4.8364758645
C        1.6113095840   -1.0979221127    6.9631945269
C        2.2089698675    0.0081461159    4.8999769524
C        1.7828766061   -1.0524508686    2.6617666373
C        1.7291517812   -1.0788016672    4.1451978944
C        2.1547357856    0.0039511646    6.2984907403
Cl       2.7538889913    1.3665745383    7.2039521743
H        1.9534525632   -1.0203225755   -1.2447038855
H        0.1111720572   -2.2201862438   -0.0876331400
H        3.6915467555    0.1531163630    0.0875952222
H        0.7046363899   -3.0431313867    6.7539400173
H       -0.0107290588   -2.2374964052    2.3695900809
H        3.6046609713    0.1226179365    2.5456899271
H        0.8135449125   -3.0389461624    4.2936855600
H        1.5685512236   -1.1024611731    8.0483082659
H        2.6144674961    0.8850542081    4.4072671129
22   

C        1.9148308972   -1.0233546500   -0.1566802784
C        0.8042217615   -1.5818654128    0.4829403326
C        2.9589417626   -0.4877961799    0.6033779992
C        1.2366793921   -2.2518682342    6.2268471830
C        0.7396445688   -1.6059214805    1.8811715718
C        2.8925751125   -0.5122048671    2.0016253202
C        1.2895635568   -2.2390873059    4.8286056275
C        1.6090489612   -1.1140093096    6.9497164441
C        2.0867035100    0.0414971059    4.8814633711
C        1.7849248260   -1.0753860717    2.6565474456
C        1.7099504169   -1.0893605757    4.1386937575
C        2.0364594052    0.0366801577    6.2802073804
Cl       2.5013342029    1.4541909050    7.1800900731
H        1.9657785598   -1.0041946809   -1.2416916397
H       -0.0107448352   -1.9942198060   -0.1050617988
H        3.8233489718   -0.0537615980    0.1090019868
H        0.9102298661   -3.1460499772    6.7503921653
H       -0.1334255097   -2.0303724484    2.3675037696
H        3.7142172767   -0.1010231281    2.5803694592
H        1.0120407636   -3.1305845195    4.2741609926
H        1.5698545234   -1.1189198967    8.0349595906
H        2.4111819661    0.9424920077    4.3709230677
22   

C        1.9206975540   -1.0215300828   -0.1551112080
C        0.7461780693   -1.4430876444    0.4766870778
C        3.0222730971   -0.6282478862    0.6119907388
C        1.3713732390   -2.2834175009    6.2362282955
C        0.6758037405   -1.4740365758    1.8745322644
C        2.9496749043   -0.6598370685    2.0098414392
C        1.4162901045   -2.2798422720    4.8376390444
C        1.6161309608   -1.1020050146    6.9447877447
C        1.9521564334    0.0774595209    4.8619043263
C        1.7803512185   -1.0916433592    2.6528279085
C        1.6962753894   -1.0956750306    4.1372228300
C        1.9094781415    0.0825681449    6.2609725277
Cl       2.2213968177    1.5518275294    7.1436090092
H        1.9762039141   -0.9964801697   -1.2397771889
H       -0.1128235277   -1.7429902218   -0.1167172578
H        3.9343657968   -0.2973131699    0.1235730043
H        1.1506315039   -3.2030359449    6.7708374322
H       -0.2409775446   -1.7914961418    2.3625712976
H        3.8074755890   -0.3535272189    2.6014560651
H        1.2378700192   -3.1988156271    4.2868628253
H        1.5831793585   -1.0994125013    8.0302452974
H        2.1799736960    0.9975976433    4.3329683866
22   

C        1.9192674682   -1.0250330651   -0.1524263550
C        0.6987456190   -1.2834853998    0.4806388202
C        3.0676761408   -0.7967622582    0.6134054270
C        1.5297347603   -2.3117807268    6.2465354129
C        0.6289114095   -1.3160455670    1.8785134933
C        2.9950176829   -0.8299369101    2.0112568714
C        1.5732877159   -2.3113380562    4.8478669039
C        1.6226724853   -1.1039192768    6.9472270523
C        1.8045149185    0.0953266873    4.8563782671
C        1.7783251658   -1.0974185842    2.6530004908
C        1.7017855179   -1.1057792903    4.1420287539
C        1.7621384657    0.1042938719    6.2554909176
Cl       1.8846816255    1.6069852379    7.1283617758
H        1.9746026110   -0.9986960624   -1.2370704133
H       -0.1953827498   -1.4561279506   -0.1115539932
H        4.0157249753   -0.5922356133    0.1241747501
H        1.4267051948   -3.2484958556    6.7870784026
H       -0.3197953484   -1.5094292330    2.3706307290
H        3.8862779870   -0.6497348697    2.6053610869
H        1.5090692333   -3.2471148343    4.3001056216
H        1.5900363656   -1.0984912398    8.0326835832
H        1.9153681265    1.0314084996    4.3178791639
22   

C        1.9066783346   -1.0356910538   -0.1520775592
C        0.6687636526   -1.1029636494    0.4965345618
C        3.0863557820   -0.9889249688    0.5989535524
C        1.7064708022   -2.3235023768    6.2452077107
C        0.6122555796   -1.1235409782    1.8952476467
C        3.0269456012   -1.0096382097    1.9976995041
C        1.7616368403   -2.3127821488    4.8469766542
C        1.6219413906   -1.1165076077    6.9487184313
C        1.6479342114    0.1025515480    4.8614924605
C        1.7912002247   -1.0771869095    2.6538733323
C        1.7327031871   -1.0985959668    4.1458371986
C        1.5923065033    0.1013520388    6.2602018819
Cl       1.4870810315    1.6033678466    7.1364863145
H        1.9518029658   -1.0193160232   -1.2373898117
H       -0.2485465383   -1.1387931954   -0.0841815298
H        4.0485167328   -0.9360987677    0.0975347932
H        1.7292482649   -3.2671150766    6.7830871733
H       -0.3479404920   -1.1751177419    2.4002994378
H        3.9421800107   -0.9727444646    2.5814124556
H        1.8273112803   -3.2465225974    4.2958792909
H        1.5788647732   -1.1189558241    8.0338219126
H        1.6251474328    1.0456661090    4.3243209455
22   

C        1.8952457024   -1.0343631106   -0.1523753420
C        0.6718856652   -0.9045608484    0.5139937339
C        3.0785249589   -1.1721083458    0.5815561553
C        1.8839049997   -2.3111930780    6.2347644949
C        0.6335979653   -0.9101546355    1.9134280494
C        3.0377567148   -1.1773404358    1.9811261035
C        1.9557371563   -2.2794311863    4.8376350007
C        1.6203239765   -1.1350752908    6.9461785734
C        1.4988231288    0.0953948857    4.8689439452
C        1.8176335017   -1.0384836922    2.6556548496
C        1.7730643706   -1.0726723899    4.1455982304
C        1.4249508455    0.0724465841    6.2666173316
Cl       1.0895586382    1.5344827531    7.1525980990
H        1.9260040868   -1.0305623399   -1.2383071932
H       -0.2486018388   -0.8017477305   -0.0535580572
H        4.0290054570   -1.2760303310    0.0660552079
H        2.0296005730   -3.2478020073    6.7655875246
H       -0.3165103912   -0.8163216365    2.4313504388
H        3.9559619641   -1.2868168065    2.5508247089
H        2.1520452104   -3.1911141618    4.2807017587
H        1.5627594975   -1.1542747909    8.0304432672
H        1.3444000266    1.0303094864    4.3392565067
22   

C        1.8884035045   -1.0376239250   -0.1529689913
C        0.6997978670   -0.7361897975    0.5200117693
C        3.0439418318   -1.3410600314    0.5746731389
C        2.0399522744   -2.2666778170    6.2409709831
C        0.6688184309   -0.7352966724    1.9196055650
C        3.0108432136   -1.3396854837    1.9744144083
C        2.1151954163   -2.2309898005    4.8441296267
C        1.6241932688   -1.1319003891    6.9462049578
C        1.3575994125    0.0652586147    4.8632905576
C        1.8270618177   -1.0272932529    2.6580241702
C        1.7857186150   -1.0595287318    4.1437948490
C        1.2792649157    0.0377310103    6.2605666629
Cl       0.7536847164    1.4476907321    7.1385361954
H        1.9131788846   -1.0390258574   -1.2390604986
H       -0.2004538168   -0.5061945802   -0.0426958691
H        3.9672139731   -1.5785264978    0.0539789641
H        2.2998628495   -3.1754842862    6.7764607475
H       -0.2585154667   -0.5118909257    2.4390065807
H        3.9097133975   -1.5762210460    2.5361502302
H        2.4256390759   -3.1152294100    4.2950874966
H        1.5631901025   -1.1546507487    8.0302129002
H        1.0886949432    0.9730050817    4.3322489417
22   

C        1.8896750509   -1.0423041239   -0.1568789542
C        0.7456879576   -0.6022781547    0.5155986022
C        2.9934807230   -1.4960120943    0.5714633876
C        2.1733415746   -2.2324644111    6.2549062702
C        0.7071759389   -0.6144591702    1.9149359956
C        2.9531162557   -1.5079706329    1.9708840074
C        2.2346862575   -2.2058628176    4.8571913082
C        1.6387003156   -1.1435480734    6.9508944447
C        1.2273488988   -0.0092909976    4.8568201352
C        1.8123664720   -1.0628142956    2.6584295290
C        1.7677294487   -1.0902956136    4.1416390383
C        1.1625828688   -0.0282542460    6.2548443839
Cl       0.4950838177    1.3279270150    7.1211243207
H        1.9202224514   -1.0328789988   -1.2427844660
H       -0.1153032858   -0.2537688228   -0.0476390516
H        3.8838182435   -1.8377548366    0.0514112818
H        2.5370619030   -3.0998295450    6.7986134538
H       -0.1919326273   -0.2829527628    2.4256449489
H        3.8195584277   -1.8544754234    2.5259733375
H        2.6378743302   -3.0610537616    4.3231118622
H        1.5887042739   -1.1595054549    8.0355878884
H        0.8631036060    0.8642327851    4.3257492061
22   

C        1.8911998843   -1.0397601171   -0.1596788466
C        0.8004858243   -0.4813522241    0.5107396164
C        2.9272439983   -1.6258607407    0.5711039542
C        2.2884850063   -2.1603333206    6.2804747042
C        0.7459671063   -0.5101844849    1.9093087604
C        2.8710999457   -1.6545822154    1.9696345260
C        2.3269167383   -2.1565655716    4.8817038118
C        1.6531986660   -1.1209381097    6.9648802009
C        1.0986376570   -0.0795038279    4.8563782914
C        1.7773603220   -1.1009347000    2.6615884441
C        1.7289932977   -1.1180829508    4.1453811169
C        1.0564487305   -0.0760709513    6.2553312034
Cl       0.2718862651    1.2261958189    7.1063034257
H        1.9342293829   -1.0167464173   -1.2449608553
H       -0.0083661627   -0.0265080934   -0.0539703368
H        3.7804899182   -2.0549627046    0.0536107613
H        2.7496657935   -2.9731098624    6.8345091787
H       -0.1216766083   -0.0839314845    2.4023367905
H        3.7005432964   -2.0959903511    2.5122730803
H        2.8109278905   -2.9834450077    4.3721742474
H        1.6213035380   -1.1193390911    8.0503763470
H        0.6480296027    0.7548899652    4.3302409870
22   

C        1.8980501555   -1.0331347486   -0.1731799309
C        0.8839365277   -0.3551822046    0.5031447817
C        2.8495357466   -1.7490276343    0.5530038077
C        2.4093029588   -2.0737044933    6.2947489181
C        0.8195491796   -0.3959394278    1.9010808049
C        2.7840321012   -1.7892822237    1.9507146065
C        2.4309130914   -2.0844159633    4.8956159343
C        1.6731219724   -1.1039914488    6.9762152219
C        0.9868923830   -0.1583876148    4.8624003230
C        1.7593974203   -1.1220681199    2.6572113154
C        1.7116182910   -1.1353078037    4.1449256150
C        0.9605249274   -0.1411366916    6.2616280565
Cl       0.0522234192    1.0823471695    7.1068201078
H        1.9483876892   -1.0008465022   -1.2579149013
H        0.1398785636    0.2038799876   -0.0571118853
H        3.6478476684   -2.2703547375    0.0325124978
H        2.9640299918   -2.8234061228    6.8519825727
H       -0.0010162641    0.1319953090    2.3722055712
H        3.5657045541   -2.3344539037    2.4659440499
H        3.0013192861   -2.8699848604    4.4143489913
H        1.6540050039   -1.0917493426    8.0619490435
H        0.4427107040    0.6293881823    4.3567425726
22   

C        1.8784171935   -1.0458569380   -0.1862066348
C        1.0060271931   -0.2077082276    0.5047600953
C        2.7142781394   -1.9009917861    0.5282931284
C        2.5507678504   -1.9574361712    6.3014593365
C        0.9693463852   -0.2243208145    1.9043124404
C        2.6769274363   -1.9169263767    1.9274394193
C        2.5905390630   -1.9439128906    4.9026564373
C        1.6757431229   -1.1164500313    6.9865284111
C        0.8840313952   -0.2522163000    4.8756588360
C        1.8012636599   -1.0769674580    2.6562394865
C        1.7601218999   -1.0926428854    4.1478339143
C        0.8386673830   -0.2601985161    6.2744908922
Cl      -0.2587672339    0.7949711012    7.1225291375
H        1.9065146392   -1.0326062918   -1.2721484327
H        0.3512007976    0.4618654687   -0.0456729718
H        3.3973493840   -2.5576184675   -0.0030176537
H        3.2037850289   -2.6253842663    6.8561989592
H        0.2653820514    0.4556820474    2.3649123887
H        3.3550120736   -2.6070209072    2.4112649855
H        3.2944073318   -2.6238054725    4.4415912681
H        1.6420116202   -1.1240999795    8.0719522449
H        0.2064463155    0.4373913362    4.3918091042
