22   

C        1.8653806147   -1.0661155071   -0.1744310638
C        1.1522135167   -0.0843984788    0.5133809394
C        2.5628066870   -2.0384392125    0.5420560857
C        2.6657759916   -1.8148232793    6.3045493850
C        1.1394482465   -0.0730449816    1.9132880421
C        2.5495345377   -2.0259665424    1.9417615013
C        2.7295918291   -1.7829406733    4.9070282501
C        1.6636556478   -1.1135355026    6.9758557116
C        0.7918055052   -0.3552997951    4.8549479570
C        1.8458659547   -1.0347861920    2.6605102600
C        1.8023724922   -1.0437055815    4.1483916348
C        0.7214044739   -0.3824882675    6.2524943948
Cl      -0.5422074304    0.4823635207    7.0841134942
H        1.8746300230   -1.0753052174   -1.2607350510
H        0.6072992725    0.6756678109   -0.0392745238
H        3.1114110375   -2.8118110881    0.0120331641
H        3.3994026795   -2.3839476489    6.8686179365
H        0.5858796386    0.7243857270    2.3946066323
H        3.0826417824   -2.8220228738    2.4475051475
H        3.5384766108   -2.3277989983    4.4348684581
H        1.6101840878   -1.1359638927    8.0602776931
H        0.0182917067    0.2009947806    4.3405288528
22   

C        1.8817153349   -1.0657991452   -0.1571825306
C        1.2826574353   -0.0051134927    0.5261872628
C        2.4481886694   -2.1209547700    0.5616147817
C        2.7324633244   -1.6791310511    6.3070251587
C        1.2513589074    0.0003645067    1.9257567691
C        2.4167390216   -2.1138116924    1.9611925333
C        2.7884021354   -1.6678720082    4.9088814893
C        1.6576292370   -1.0792096996    6.9682458137
C        0.6999770659   -0.4606591280    4.8379387564
C        1.8215456537   -1.0507702391    2.6664203553
C        1.7750222552   -1.0547873246    4.1503950299
C        0.6368240164   -0.4682731972    6.2360808390
Cl      -0.7093859905    0.2722326685    7.0576379386
H        1.9053750586   -1.0707988146   -1.2432910244
H        0.8428429837    0.8184769055   -0.0290455475
H        2.9087776393   -2.9510709258    0.0336709110
H        3.5263908512   -2.1513805280    6.8787828781
H        0.7944084087    0.8456843149    2.4299469371
H        2.8442285070   -2.9574076030    2.4930469091
H        3.6417550160   -2.1249665586    4.4185059454
H        1.6096859289   -1.0859462440    8.0531314998
H       -0.1165341422   -0.0001369279    4.2926726253
22   

C        1.8897078597   -1.0596688961   -0.1503392666
C        1.4065244473    0.0545568133    0.5422179249
C        2.3238350799   -2.1843973911    0.5576541399
C        2.7969500796   -1.5620471555    6.2942062282
C        1.3560480750    0.0424516740    1.9411845361
C        2.2730846766   -2.1946909362    1.9567398596
C        2.8332146591   -1.5736498270    4.8954165028
C        1.6720168283   -1.0636530802    6.9590704160
C        0.6272972373   -0.5893238032    4.8319910107
C        1.7841173881   -1.0842979898    2.6639067469
C        1.7452959146   -1.0927938592    4.1473274417
C        0.5833068135   -0.5743052208    6.2308788699
Cl      -0.8177393208    0.0481651068    7.0584147318
H        1.9289437300   -1.0509078874   -1.2359704315
H        1.0731112098    0.9317387914   -0.0049442107
H        2.6990737027   -3.0516693802    0.0219489207
H        3.6434982816   -1.9361658279    6.8630873232
H        0.9914994792    0.9190088222    2.4683164968
H        2.6050221590   -3.0769888815    2.4955173413
H        3.7160010177   -1.9487909467    4.3863888520
H        1.6391620016   -1.0522489280    8.0444766517
H       -0.2259853268   -0.2151729481    4.2755080466
22   

C        1.8855385336   -1.0595959288   -0.1460409841
C        1.5405808320    0.1011491727    0.5541194940
C        2.1698523674   -2.2371989095    0.5533987695
C        2.8303650557   -1.4267490522    6.2874853174
C        1.4770951358    0.0822081567    1.9524893762
C        2.1058591773   -2.2540279687    1.9519658092
C        2.8579240961   -1.4524009743    4.8886683277
C        1.6604418905   -1.0480185232    6.9551466013
C        0.5543651300   -0.7193770657    4.8311527696
C        1.7495135613   -1.0986058406    2.6620860418
C        1.7150827967   -1.1100584424    4.1483505031
C        0.5185944340   -0.6907294498    6.2301415128
Cl      -0.9352220447   -0.2112137865    7.0617294157
H        1.9355016600   -1.0456309383   -1.2311763693
H        1.3252935913    1.0185070998    0.0136605164
H        2.4410305360   -3.1388732582    0.0117426069
H        3.7173676074   -1.6963661825    6.8538456265
H        1.2199526841    0.9881213746    2.4936311636
H        2.3276945837   -3.1699113562    2.4917902473
H        3.7693700890   -1.7340219129    4.3693826443
H        1.6340816029   -1.0255560126    8.0405557422
H       -0.3318884017   -0.4409183974    4.2696067999
22   

C        1.8868112479   -1.0679337749   -0.1450553946
C        1.7113812391    0.1298677458    0.5563520149
C        2.0049669285   -2.2746377741    0.5532648350
C        2.8667304100   -1.2676085242    6.2912661548
C        1.6518194828    0.1191497109    1.9550143484
C        1.9449928911   -2.2828180605    1.9521285646
C        2.9005042663   -1.2904607791    4.8925173744
C        1.6558378818   -1.0417363992    6.9557740362
C        0.5214065377   -0.8600964287    4.8288796004
C        1.7601612421   -1.0886231026    2.6611787249
C        1.7249479228   -1.0963011851    4.1517417739
C        0.4787521800   -0.8353036385    6.2278145694
Cl      -1.0266962046   -0.5468222144    7.0557075413
H        1.9335819160   -1.0606797213   -1.2303980981
H        1.6236477593    1.0685326505    0.0167281436
H        2.1442443373   -3.2053334935    0.0107143249
H        3.7794912401   -1.4220107055    6.8598276439
H        1.5225274616    1.0494922970    2.5004491131
H        2.0392614321   -3.2192026123    2.4942921734
H        3.8393014749   -1.4573405641    4.3722402034
H        1.6241539345   -1.0222392821    8.0410977834
H       -0.3898106898   -0.6969823022    4.2618174459
22   

C        1.8770477708   -1.0790290925   -0.1465643496
C        1.9016238742    0.1358288201    0.5471119652
C        1.8125646325   -2.2849798677    0.5601396492
C        2.8893632177   -1.0907735703    6.3028693043
C        1.8618624204    0.1430628137    1.9465281020
C        1.7729045730   -2.2749138856    1.9597074130
C        2.9384748042   -1.0969406571    4.9043882578
C        1.6527462448   -1.0437505961    6.9567087081
C        0.5233633335   -1.0093516355    4.8197192342
C        1.7974820640   -1.0625048667    2.6608618016
C        1.7546367197   -1.0562277842    4.1535174278
C        0.4647954379   -1.0028531773    6.2182965178
Cl      -1.0740684894   -0.9443516026    7.0328368266
H        1.9075193656   -1.0859042160   -1.2324888051
H        1.9510866542    1.0734274907    0.0008188288
H        1.7928034094   -3.2292925258    0.0236256771
H        3.8095818400   -1.1224349252    6.8794395412
H        1.8802448669    1.0852815386    2.4865289546
H        1.7222297558   -3.2105621893    2.5090049986
H        3.8954001547   -1.1333551387    4.3916877945
H        1.6087908256   -1.0387553591    8.0417682464
H       -0.3963963218   -0.9776985140    4.2438936632
22   

C        1.8730952047   -1.0909300812   -0.1472276479
C        2.0888879499    0.1088153349    0.5392726190
C        1.6242743729   -2.2680985702    0.5667815870
C        2.8687711014   -0.9165683444    6.3128432063
C        2.0583118205    0.1291716269    1.9387864214
C        1.5942803684   -2.2449100653    1.9664005605
C        2.9311753123   -0.9102793640    4.9149019638
C        1.6320430117   -1.0465405034    6.9548326803
C        0.5293716046   -1.1658423934    4.8070946222
C        1.8187629009   -1.0492129978    2.6618444988
C        1.7598458739   -1.0256666352    4.1515139173
C        0.4575637667   -1.1734180434    6.2050129766
Cl      -1.0810099178   -1.3420739122    7.0046062718
H        1.8957620728   -1.1078855213   -1.2332327217
H        2.2773503107    1.0251431262   -0.0128043742
H        1.4527720382   -3.2001364961    0.0358705550
H        3.7792004286   -0.8234471914    6.8982349909
H        2.2185388751    1.0616550451    2.4720995915
H        1.3981400074   -3.1585149433    2.5201446654
H        3.8896241746   -0.8171910415    4.4123534689
H        1.5778627886   -1.0526432155    8.0394236775
H       -0.3804250724   -1.2668507912    4.2234970168
22   

C        1.8694601512   -1.0925139834   -0.1504227099
C        2.2486549140    0.0630352584    0.5404299985
C        1.4553271446   -2.2245536438    0.5591903581
C        2.8387932842   -0.7581383220    6.3065432200
C        2.2164639975    0.0840298570    1.9398600882
C        1.4237560873   -2.2013063523    1.9587336963
C        2.8980574286   -0.7532402354    4.9084903479
C        1.6299330818   -1.0399281256    6.9522649900
C        0.5484455722   -1.3134678394    4.8079699790
C        1.8127546079   -1.0512419071    2.6610595672
C        1.7496278639   -1.0200745335    4.1461833151
C        0.4805135503   -1.3207068977    6.2060287757
Cl      -1.0228575206   -1.6787233178    7.0102446851
H        1.8934171469   -1.1097219410   -1.2363966542
H        2.5646156583    0.9455653606   -0.0084446242
H        1.1571939301   -3.1220409852    0.0247596629
H        3.7310326882   -0.5472810133    6.8893630806
H        2.5011064145    0.9860758793    2.4734719701
H        1.1014678683   -3.0826433379    2.5055706037
H        3.8385012609   -0.5460176362    4.4061712404
H        1.5785999411   -1.0456904067    8.0369967715
H       -0.3444828318   -1.5315990095    4.2305395527
22   

C        1.8715476395   -1.0859505757   -0.1512512738
C        2.3880313910    0.0066945460    0.5515155169
C        1.3148668521   -2.1618587239    0.5467513672
C        2.8069731641   -0.6236053881    6.3006282479
C        2.3490331427    0.0215750458    1.9508241655
C        1.2761966761   -2.1451838187    1.9461501593
C        2.8568930247   -0.6267729449    4.9022175546
C        1.6425383086   -1.0328787905    6.9583086813
C        0.5855665846   -1.4481496460    4.8249213710
C        1.7967097633   -1.0559966020    2.6642813309
C        1.7438329276   -1.0338390520    4.1472658351
C        0.5277222488   -1.4477023957    6.2233733201
Cl      -0.9228402330   -1.9585174458    7.0420157856
H        1.9013338209   -1.0983394151   -1.2371480566
H        2.8166401799    0.8462337425    0.0116814788
H        0.9133881349   -3.0124017399    0.0032575412
H        3.6731805700   -0.3070615198    6.8748345077
H        2.7411961882    0.8809669970    2.4861583852
H        0.8492507951   -2.9910459030    2.4765706500
H        3.7688369299   -0.3207564778    4.3983249262
H        1.5988185343   -1.0323087622    8.0433893010
H       -0.2880360655   -1.7632582566    4.2634451728
22   

C        1.9239615672   -1.0574041659   -0.1569327584
C        1.4077074104   -2.1643725487    0.5207293576
C        2.3711909011    0.0508248294    0.5661454488
C        0.6237512120   -1.7473935816    6.2200375389
C        1.3402876313   -2.1631384872    1.9190909397
C        2.3038418781    0.0506422237    1.9644157307
C        0.6905682263   -1.7505492517    4.8223177582
C        1.5760799302   -1.0456453733    6.9636224318
C        2.6567430269   -0.3549003999    4.9160444672
C        1.7917720734   -1.0585517889    2.6638525530
C        1.7058053476   -1.0507126246    4.1459949538
C        2.5968399008   -0.3472791682    6.3143258441
Cl       3.7912877128    0.5208921768    7.2390670739
H        1.9760968864   -1.0576896566   -1.2420589181
H        1.0610705432   -3.0289327323   -0.0381423046
H        2.7670121078    0.9164112649    0.0425967454
H       -0.1706352804   -2.2877272869    6.7272252220
H        0.9504911146   -3.0433378176    2.4196617667
H        2.6373574983    0.9341685055    2.4989630230
H       -0.0706757156   -2.2883859092    4.2666364074
H        1.5284377316   -1.0406360700    8.0485321552
H        3.4721057048    0.1759657040    4.4369593315
22   

C        1.9156068536   -1.0542738664   -0.1662583778
C        1.2709634084   -2.0915172889    0.5077691551
C        2.4950276237   -0.0157730815    0.5625099207
C        0.7185252175   -1.8558902765    6.2391497972
C        1.2098223391   -2.0926732371    1.9065387034
C        2.4335650123   -0.0178916790    1.9609021003
C        0.7809404749   -1.8549160517    4.8411146162
C        1.5880809690   -1.0544017952    6.9797532314
C        2.5811419166   -0.2583023326    4.9273774348
C        1.8001875817   -1.0645926496    2.6658985752
C        1.7043515320   -1.0469758786    4.1511526046
C        2.5246983454   -0.2539970604    6.3257383927
Cl       3.6247280754    0.7363891692    7.2451307087
H        1.9627352489   -1.0532010211   -1.2516182046
H        0.8175596607   -2.9025429663   -0.0549566839
H        2.9886546580    0.8006722619    0.0430803329
H       -0.0102980449   -2.4793357846    6.7494631487
H        0.7135552600   -2.9328666534    2.3769522563
H        2.8717078302    0.8285388697    2.4764742613
H        0.0704110023   -2.4803819104    4.3141085012
H        1.5429142465   -1.0524892844    8.0647828882
H        3.3463406760    0.3552186355    4.4682245064
22   

C        1.9066898443   -1.0512421338   -0.1814875608
C        1.1046497292   -1.9741638657    0.4866264902
C        2.6490890770   -0.1307510864    0.5549118341
C        0.8516738976   -1.9949097606    6.2463883511
C        1.0447041234   -1.9772421068    1.8855660477
C        2.5889505235   -0.1340584375    1.9532761523
C        0.9131400034   -1.9899804494    4.8482249835
C        1.5934332819   -1.0745798573    6.9849146964
C        2.4552891174   -0.1477294646    4.9289771307
C        1.7831880809   -1.0595884639    2.6581512216
C        1.7155819753   -1.0676806849    4.1487511403
C        2.3985609943   -0.1469637521    6.3273484489
Cl       3.3294168263    1.0075404925    7.2424802842
H        1.9528254979   -1.0493394305   -1.2668930958
H        0.5232280955   -2.6946606804   -0.0815955021
H        3.2768698288    0.5920528884    0.0415464294
H        0.2237882890   -2.7183098534    6.7590148455
H        0.3992692325   -2.7247019039    2.3263737762
H        3.1928555660    0.6098623051    2.4556234662
H        0.3093224803   -2.7342625338    4.3468612815
H        1.5479746141   -1.0756902748    8.0699381585
H        3.0998822141    0.5991728351    4.4867137796
22   

C        1.9089106003   -1.0315157470   -0.1735899097
C        0.9646886661   -1.8224596175    0.4811017326
C        2.7933000723   -0.2547904225    0.5746749268
C        0.9965267456   -2.1238565435    6.2350906877
C        0.9020282450   -1.8333067174    1.8797617453
C        2.7297459373   -0.2660802951    1.9729351950
C        1.0591569178   -2.1112358131    4.8371189776
C        1.5965079888   -1.1024126164    6.9724755720
C        2.3147994154   -0.0581858899    4.9167768200
C        1.7727584943   -1.0465709340    2.6575503920
C        1.7304121220   -1.0857127287    4.1448657394
C        2.2562179656   -0.0640200186    6.3150434269
Cl       2.9928667218    1.2234331824    7.2293815961
H        1.9577838010   -1.0234493883   -1.2588438371
H        0.2738271054   -2.4296716014   -0.0968292441
H        3.5383283465    0.3545780445    0.0710296488
H        0.4825461442   -2.9319171800    6.7480722968
H        0.1365756563   -2.4511746231    2.3334198228
H        3.4604410904    0.3305496497    2.5061908925
H        0.5938164293   -2.9380279787    4.3139978582
H        1.5498681335   -1.1085147861    8.0574277968
H        2.8100490759    0.7856808882    4.4526699925
22   

C        1.9067677239   -1.0301034884   -0.1593727493
C        0.8725465769   -1.7061840124    0.4920850194
C        2.8818525682   -0.3681286907    0.5903017058
C        1.1245275332   -2.1862746948    6.2345778383
C        0.8132419300   -1.7187954840    1.8907538739
C        2.8211327902   -0.3809354764    1.9888201599
C        1.1819078091   -2.1745217916    4.8364758645
C        1.6113129459   -1.0979215315    6.9631936880
C        2.2089729240    0.0081453660    4.8999752628
C        1.7828766061   -1.0524508686    2.6617666373
C        1.7291517812   -1.0788016672    4.1451978944
C        2.1547401326    0.0039509761    6.2984890963
Cl       2.7538962843    1.3665736659    7.2039495777
H        1.9534877924   -1.0203711950   -1.2447019316
H        0.1111802951   -2.2201959618   -0.0876336205
H        3.6915963772    0.1530445172    0.0875990793
H        0.7046375198   -3.0431301490    6.7539408685
H       -0.0107386845   -2.2374812142    2.3695901214
H        3.6046919790    0.1225685251    2.5456952882
H        0.8135435202   -3.0389454774    4.2936853261
H        1.5685555438   -1.1024601481    8.0483074673
H        2.6144720370    0.8850513316    4.4072625750
22   

C        1.9148391369   -1.0233696975   -0.1566798710
C        0.8042252099   -1.5818714570    0.4829403853
C        2.9589523479   -0.4878160283    0.6033786555
C        1.2366798419   -2.2518680823    6.2268472037
C        0.7396445688   -1.6059214805    1.8811715718
C        2.8925825322   -0.5122190461    2.0016259290
C        1.2895635568   -2.2390873059    4.8286056275
C        1.6090500632   -1.1140091898    6.9497162465
C        2.0867046074    0.0414968626    4.8814629591
C        1.7849248260   -1.0753860717    2.6565474456
C        1.7099504169   -1.0893605757    4.1386937575
C        2.0364609095    0.0366800548    6.2802069830
Cl       2.5013367713    1.4541905928    7.1800894478
H        1.9657891513   -1.0042138586   -1.2416911942
H       -0.0107422735   -1.9942237409   -0.1050619975
H        3.8233638439   -0.0537897195    0.1090028766
H        0.9102301544   -3.1460496565    6.7503923700
H       -0.1334284096   -2.0303665884    2.3675036976
H        3.7142266477   -0.1010420680    2.5803707063
H        1.0120402851   -3.1305843858    4.2741610068
H        1.5698559152   -1.1189196694    8.0349594035
H        2.4111836984    0.9424912109    4.3709220428
22   

C        1.9206888931   -1.0215076372   -0.1551114674
C        0.7461744153   -1.4430785666    0.4766870915
C        3.0222619764   -0.6282183955    0.6119903007
C        1.3713729632   -2.2834176423    6.2362282873
C        0.6758037405   -1.4740365758    1.8745322644
C        2.9496670657   -0.6598160957    2.0098409763
C        1.4162901045   -2.2798422720    4.8376390444
C        1.6161302875   -1.1020051983    6.9447879021
C        1.9521557374    0.0774595936    4.8619046551
C        1.7803512185   -1.0916433592    2.6528279085
C        1.6962753894   -1.0956750306    4.1372228300
C        1.9094772273    0.0825680769    6.2609728420
Cl       2.2213952920    1.5518274946    7.1436094907
H        1.9761927697   -0.9964515030   -1.2397774324
H       -0.1128262964   -1.7429841734   -0.1167169960
H        3.9343501604   -0.2972713829    0.1235724605
H        1.1506313265   -3.2030361854    6.7708372932
H       -0.2409744805   -1.7915048515    2.3625713778
H        3.8074655614   -0.3534992929    2.6014551701
H        1.2378703160   -3.1988156724    4.2868628119
H        1.5831784901   -1.0994127777    8.0302454483
H        2.1799725060    0.9975980609    4.3329691187
22   

C        1.9192590720   -1.0249947866   -0.1524261598
C        0.6987420816   -1.2834698468    0.4806390024
C        3.0676653178   -0.7967121025    0.6134056226
C        1.5297350656   -2.3117808761    6.2465354253
C        0.6289114095   -1.3160455670    1.8785134933
C        2.9950099979   -0.8299013159    2.0112568773
C        1.5732877159   -2.3113380562    4.8478669039
C        1.6226731456   -1.1039195481    6.9472272034
C        1.8045154514    0.0953265858    4.8563785252
C        1.7783251658   -1.0974185842    2.6530004908
C        1.7017855179   -1.1057792903    4.1420287539
C        1.7621392372    0.1042936311    6.2554911758
Cl       1.8846827416    1.6069848999    7.1283621509
H        1.9745918248   -0.9986471462   -1.2370700820
H       -0.1953854253   -1.4561174620   -0.1115536333
H        4.0157097461   -0.5921645767    0.1241751351
H        1.4267054901   -3.2484960563    6.7870783218
H       -0.3197923710   -1.5094439976    2.3706306594
H        3.8862680173   -0.6496875287    2.6053609590
H        1.5090690408   -3.2471148202    4.3001056285
H        1.5900372205   -1.0984916380    8.0326837424
H        1.9153685815    1.0314085252    4.3178796223
22   

C        1.9066783406   -1.0356908950   -0.1520775510
C        0.6687636586   -1.1029635776    0.4965345614
C        3.0863557832   -0.9889247748    0.5989535636
C        1.7064707790   -2.3235023804    6.2452077067
C        0.6122555796   -1.1235409782    1.8952476467
C        3.0269455976   -1.0096380824    1.9976995128
C        1.7616368403   -2.3127821488    4.8469766542
C        1.6219413445   -1.1165076130    6.9487184255
C        1.6479342174    0.1025515470    4.8614924559
C        1.7912002247   -1.0771869095    2.6538733323
C        1.7327031871   -1.0985959668    4.1458371986
C        1.5923064803    0.1013520349    6.2602018744
Cl       1.4870810136    1.6033678460    7.1364862962
H        1.9518029768   -1.0193158236   -1.2373898039
H       -0.2485465278   -1.1387931387   -0.0841815371
H        4.0485167335   -0.9360984927    0.0975348112
H        1.7292482344   -3.2671150888    6.7830871549
H       -0.3479404905   -1.1751178093    2.4002994337
H        3.9421800012   -0.9727443012    2.5814124701
H        1.8273113016   -3.2465225931    4.2958792862
H        1.5788647019   -1.1189558347    8.0338219078
H        1.6251474528    1.0456661066    4.3243209364
22   

C        1.8952408046   -1.0344026471   -0.1523759148
C        0.6718835517   -0.9045769388    0.5139936085
C        3.0785187311   -1.1721600312    0.5815553435
C        1.8839043009   -2.3111932341    6.2347644502
C        0.6335979653   -0.9101546355    1.9134280494
C        3.0377522848   -1.1773770481    1.9811253947
C        1.9557371563   -2.2794311863    4.8376350007
C        1.6203223548   -1.1350756458    6.9461784994
C        1.4988217131    0.0953945840    4.8689438968
C        1.8176335017   -1.0384836922    2.6556548496
C        1.7730643706   -1.0726723899    4.1455982304
C        1.4249488133    0.0724461468    6.2666172474
Cl       1.0895553498    1.5344820604    7.1525979547
H        1.9259977645   -1.0306129439   -1.2383078464
H       -0.2486035507   -0.8017586453   -0.0535578936
H        4.0289967494   -1.2761035537    0.0660541617
H        2.0295999629   -3.2478021515    6.7655874677
H       -0.3165087689   -0.8163064552    2.4313506608
H        3.9559563108   -1.2868654799    2.5508236496
H        2.1520456247   -3.1911141402    4.2807018685
H        1.5627573781   -1.1542752660    8.0304431624
H        1.3443982194    1.0303091418    4.3392565106
22   

C        1.8883971064   -1.0376467287   -0.1529694049
C        0.6997951598   -0.7361990433    0.5200117077
C        3.0439336340   -1.3410899379    0.5746725105
C        2.0399521748   -2.2666778153    6.2409709832
C        0.6688184309   -0.7352966724    1.9196055650
C        3.0108374178   -1.3397067102    1.9744138157
C        2.1151954163   -2.2309898005    4.8441296267
C        1.6241930625   -1.1319004327    6.9462049608
C        1.3575992541    0.0652585611    4.8632905673
C        1.8270618177   -1.0272932529    2.6580241702
C        1.7857186150   -1.0595287318    4.1437948490
C        1.2792646615    0.0377309404    6.2605666627
Cl       0.7536842669    1.4476906065    7.1385361671
H        1.9131706543   -1.0390550064   -1.2390609462
H       -0.2004559020   -0.5062007955   -0.0426956844
H        3.9672024728   -1.5785688683    0.0539781622
H        2.2998627042   -3.1754842928    6.7764607530
H       -0.2585132753   -0.5118821294    2.4390067004
H        3.9097060285   -1.5762492610    2.5361492034
H        2.4256389467   -3.1152295911    4.2950877265
H        1.5631898176   -1.1546508248    8.0302128993
H        1.0886947788    0.9730050527    4.3322490060
22   

C        1.8896819854   -1.0422882149   -0.1568783198
C        0.7456908800   -0.6022717591    0.5155987371
C        2.9934895978   -1.4959910855    0.5714643556
C        2.1733413758   -2.2324645329    6.2549062549
C        0.7071759389   -0.6144591702    1.9149359956
C        2.9531224665   -1.5079556101    1.9708848545
C        2.2346862575   -2.2058628176    4.8571913082
C        1.6386998026   -1.1435483088    6.9508943899
C        1.2273484608   -0.0092911957    4.8568200674
C        1.8123664720   -1.0628142956    2.6584295290
C        1.7677294487   -1.0902956136    4.1416390383
C        1.1625822506   -0.0282545226    6.2548443086
Cl       0.4950828789    1.3279266010    7.1211242131
H        1.9202313640   -1.0328587388   -1.2427837391
H       -0.1153010753   -0.2537646685   -0.0476392148
H        3.8838306927   -1.8377250640    0.0514126113
H        2.5370618663   -3.0998295960    6.7986134438
H       -0.1919350122   -0.2829589600    2.4256447920
H        3.8195661783   -1.8544553930    2.5259749340
H        2.6378747946   -3.0610533090    4.3231114517
H        1.5887036142   -1.1595057258    8.0355878258
H        0.8631029859    0.8642324572    4.3257490380
22   

C        1.8912236866   -1.0397198099   -0.1596760837
C        0.8004957924   -0.4813360986    0.5107403313
C        2.9272744041   -1.6258073771    0.5711081272
C        2.2884838556   -2.1603342663    6.2804746294
C        0.7459671063   -0.5101844849    1.9093087604
C        2.8711210216   -1.6545438672    1.9696380257
C        2.3269167383   -2.1565655716    4.8817038118
C        1.6531958547   -1.1209399403    6.9648800227
C        1.0986353921   -0.0795051701    4.8563780756
C        1.7773603220   -1.1009347000    2.6615884441
C        1.7289932977   -1.1180829508    4.1453811169
C        1.0564453385   -0.0760730409    6.2553309866
Cl       0.2718806795    1.2261924157    7.1063031914
H        1.9342599974   -1.0166951371   -1.2449575906
H       -0.0083587398   -0.0264977823   -0.0539706597
H        3.7805325530   -2.0548870896    0.0536166530
H        2.7496651121   -2.9731105860    6.8345090330
H       -0.1216847902   -0.0839474085    2.4023362883
H        3.7005691968   -2.0959388281    2.5122801494
H        2.8109295116   -2.9834428688    4.3721720337
H        1.6212998459   -1.1193414128    8.0503761425
H        0.6480264768    0.7548879135    4.3302403055
22   

C        1.8980799331   -1.0330959359   -0.1731764355
C        0.8839487053   -0.3551669039    0.5031457805
C        2.8495744657   -1.7489754769    0.5530090460
C        2.4093027093   -2.0737048315    6.2947488684
C        0.8195491796   -0.3959394278    1.9010808049
C        2.7840593068   -1.7892441470    1.9507189028
C        2.4309130914   -2.0844159633    4.8956159343
C        1.6731209810   -1.1039920783    6.9762149505
C        0.9868911465   -0.1583884296    4.8623998844
C        1.7593974203   -1.1220681199    2.6572113154
C        1.7116182910   -1.1353078037    4.1449256150
C        0.9605233876   -0.1411376649    6.2616276457
Cl       0.0522208929    1.0823455364    7.1068195810
H        1.9484258035   -1.0007973479   -1.2579107123
H        0.1398869883    0.2038891449   -0.0571120317
H        3.6479023034   -2.2702804670    0.0325200050
H        2.9640299049   -2.8234063282    6.8519825373
H       -0.0010271541    0.1319789962    2.3722051394
H        3.5657395853   -2.3344006004    2.4659529982
H        3.0013187665   -2.8699837844    4.4143460959
H        1.6540037224   -1.0917499932    8.0619487654
H        0.4427092385    0.6293866997    4.3567411742
22   

C        1.8784171480   -1.0458569740   -0.1862066406
C        1.0060271715   -0.2077082432    0.5047600937
C        2.7142780955   -1.9009918226    0.5282931190
C        2.5507678377   -1.9574361825    6.3014593349
C        0.9693463852   -0.2243208145    1.9043124404
C        2.6769274149   -1.9169263945    1.9274394112
C        2.5905390630   -1.9439128906    4.9026564373
C        1.6757430903   -1.1164500584    6.9865284045
C        0.8840313765   -0.2522163197    4.8756588295
C        1.8012636599   -1.0769674580    2.6562394865
C        1.7601218999   -1.0926428854    4.1478339143
C        0.8386673490   -0.2601985453    6.2744908825
Cl      -0.2587672900    0.7949710607    7.1225291110
H        1.9065145748   -1.0326063453   -1.2721484388
H        0.3512007780    0.4618654559   -0.0456729736
H        3.3973493199   -2.5576185195   -0.0030176712
H        3.2037850242   -2.6253842719    6.8561989548
H        0.2653820668    0.4556820662    2.3649123848
H        3.3550120495   -2.6070209320    2.4112649713
H        3.2944073469   -2.6238054547    4.4415912643
H        1.6420115738   -1.1241000177    8.0719522377
H        0.2064462888    0.4373913063    4.3918090948
