22   

C        1.8654062299   -1.0660954694   -0.1744316296
C        1.1522235808   -0.0843903017    0.5133809748
C        2.5628411386   -2.0384131282    0.5420549384
C        2.6657749198   -1.8148244579    6.3045493410
C        1.1394482465   -0.0730449816    1.9132880421
C        2.5495597064   -2.0259481908    1.9417603350
C        2.7295918291   -1.7829406733    4.9070282501
C        1.6636532100   -1.1135386752    6.9758556238
C        0.7918030850   -0.3553031548    4.8549479100
C        1.8458659547   -1.0347861920    2.6605102600
C        1.8023724922   -1.0437055815    4.1483916348
C        0.7214012001   -0.3824926884    6.2524942615
Cl      -0.5422127629    0.4823562862    7.0841131663
H        1.8746624746   -1.0752795708   -1.2607356072
H        0.6073052485    0.6756734281   -0.0392739775
H        3.1114600966   -2.8117742816    0.0120314878
H        3.3994019154   -2.3839483581    6.8686179671
H        0.5858689344    0.7243783396    2.3946064302
H        3.0826770875   -2.8219991090    2.4475015533
H        3.5384779866   -2.3277983567    4.4348704110
H        1.6101810868   -1.1359678917    8.0602775612
H        0.0182882670    0.2009901946    4.3405290948
22   

C        1.8817590709   -1.0657726527   -0.1571827384
C        1.2826749167   -0.0051024051    0.5261876208
C        2.4482465585   -2.1209209195    0.5616139054
C        2.7324613494   -1.6791337378    6.3070251019
C        1.2513589074    0.0003645067    1.9257567691
C        2.4167806327   -2.1137882051    1.9611913369
C        2.7884021354   -1.6678720082    4.9088814893
C        1.6576249826   -1.0792163781    6.9682456004
C        0.6999735441   -0.4606651392    4.8379385518
C        1.8215456537   -1.0507702391    2.6664203553
C        1.7750222552   -1.0547873246    4.1503950299
C        0.6368188218   -0.4682817443    6.2360805113
Cl      -0.7093944164    0.2722186304    7.0576372687
H        1.9054307213   -1.0707647436   -1.2432910059
H        0.8428541310    0.8184851255   -0.0290444244
H        2.9088596684   -2.9510234534    0.0336696707
H        3.5263893605   -2.1513821614    6.8787830170
H        0.7943910833    0.8456750593    2.4299466424
H        2.8442845448   -2.9573785655    2.4930426780
H        3.6417580171   -2.1249634232    4.4185085519
H        1.6096805165   -1.0859548336    8.0531312255
H       -0.1165389128   -0.0001450939    4.2926725375
22   

C        1.8897658096   -1.0596428914   -0.1503380555
C        1.4065477890    0.0545677701    0.5422188610
C        2.3239113698   -2.1843641590    0.5576552309
C        2.7969485189   -1.5620499115    6.2942062413
C        1.3560480750    0.0424516740    1.9411845361
C        2.2731391008   -2.1946676974    1.9567400642
C        2.8332146591   -1.5736498270    4.8954165028
C        1.6720134617   -1.0636598401    6.9590703426
C        0.6272944212   -0.5893298668    4.8319909028
C        1.7841173881   -1.0842979898    2.6639067469
C        1.7452959146   -1.0927938592    4.1473274417
C        0.5833026926   -0.5743138663    6.2308787290
Cl      -0.8177459712    0.0481509455    7.0584144524
H        1.9290176285   -1.0508744365   -1.2359685828
H        1.0731265013    0.9317470692   -0.0049426610
H        2.6991817449   -3.0516227825    0.0219506106
H        3.6434970757   -1.9361675190    6.8630875080
H        0.9914768827    0.9189997733    2.4683158587
H        2.6050946820   -3.0769597852    2.4955158874
H        3.7160033635   -1.9487875507    4.3863905501
H        1.6391577079   -1.0522575895    8.0444765715
H       -0.2259890715   -0.2151810970    4.2755079954
22   

C        1.8856011796   -1.0595774819   -0.1460387091
C        1.5406062221    0.1011570029    0.5541207466
C        2.1699345352   -2.2371753187    0.5534014716
C        2.8303642575   -1.4267511082    6.2874853485
C        1.4770951358    0.0822081567    1.9524893762
C        2.1059175533   -2.2540113081    1.9519673196
C        2.8579240961   -1.4524009743    4.8886683277
C        1.6604401482   -1.0480235002    6.9551466309
C        0.5543636422   -0.7193814950    4.8311527719
C        1.7495135613   -1.0986058406    2.6620860418
C        1.7150827967   -1.1100584424    4.1483505031
C        0.5185922868   -0.6907357858    6.2301415303
Cl      -0.9352255082   -0.2112241231    7.0617294403
H        1.9355816655   -1.0456072090   -1.2311732255
H        1.3253105734    1.0185131351    0.0136620755
H        2.4411469128   -3.1388401823    0.0117466462
H        3.7173669884   -1.6963674931    6.8538457333
H        1.2199284705    0.9881150143    2.4936302826
H        2.3277722558   -3.1698901255    2.4917915600
H        3.7693712084   -1.7340194560    4.3693833071
H        1.6340793691   -1.0255623893    8.0405557865
H       -0.3318903963   -0.4409243359    4.2696068782
22   

C        1.8868557445   -1.0679277691   -0.1450537597
C        1.7113992941    0.1298703164    0.5563527989
C        2.0050252934   -2.2746300883    0.5532669049
C        2.8667302070   -1.2676093084    6.2912661673
C        1.6518194828    0.1191497109    1.9550143484
C        1.9450343572   -2.2828125750    1.9521298859
C        2.9005042663   -1.2904607791    4.8925173744
C        1.6558374731   -1.0417382370    6.9557740350
C        0.5214062121   -0.8600980657    4.8288795814
C        1.7601612421   -1.0886231026    2.6611787249
C        1.7249479228   -1.0963011851    4.1517417739
C        0.4787516991   -0.8353059657    6.2278145566
Cl      -1.0266969657   -0.5468259967    7.0557075276
H        1.9336387596   -1.0606720046   -1.2303959189
H        1.6236598931    1.0685346798    0.0167289471
H        2.1443269929   -3.2053227389    0.0107173648
H        3.7794910481   -1.4220112458    6.8598276994
H        1.5225103000    1.0494902687    2.5004485004
H        2.0393166070   -3.2191955752    2.4942937924
H        3.8393017069   -1.4573396658    4.3722403324
H        1.6241534018   -1.0222416301    8.0410977886
H       -0.3898111354   -0.6969845183    4.2618174612
22   

C        1.8770476397   -1.0790290922   -0.1465643505
C        1.9016238323    0.1358288205    0.5471119638
C        1.8125644565   -2.2849798655    0.5601396475
C        2.8893632165   -1.0907735526    6.3028693079
C        1.8618624204    0.1430628137    1.9465281020
C        1.7729044566   -2.2749138829    1.9597074118
C        2.9384748042   -1.0969406571    4.9043882578
C        1.6527462417   -1.0437505746    6.9567087118
C        0.5233633310   -1.0093516583    4.8197192304
C        1.7974820640   -1.0625048667    2.6608618016
C        1.7546367197   -1.0562277842    4.1535174278
C        0.4647954349   -1.0028531865    6.2182965144
Cl      -1.0740684967   -0.9443516249    7.0328368167
H        1.9075192001   -1.0859042173   -1.2324888054
H        1.9510866521    1.0734274873    0.0008188243
H        1.7928031597   -3.2292925229    0.0236256760
H        3.8095818430   -1.1224348979    6.8794395453
H        1.8802449262    1.0852815363    2.4865289566
H        1.7222296149   -3.2105621855    2.5090049960
H        3.8954001524   -1.1333551375    4.3916877901
H        1.6087908277   -1.0387553114    8.0417682535
H       -0.3963963196   -0.9776985720    4.2438936481
22   

C        1.8730513448   -1.0909209807   -0.1472290326
C        2.0888701018    0.1088191646    0.5392721680
C        1.6242169370   -2.2680868282    0.5667797119
C        2.8687711127   -0.9165673380    6.3128432162
C        2.0583118205    0.1291716269    1.9387864214
C        1.5942396149   -2.2449017034    1.9663990872
C        2.9311753123   -0.9102793640    4.9149019638
C        1.6320429445   -1.0465380265    6.9548328097
C        0.5293713603   -1.1658399682    4.8070948681
C        1.8187629009   -1.0492129978    2.6618444988
C        1.7598458739   -1.0256666352    4.1515139173
C        0.4575635558   -1.1734147184    6.2050132216
Cl      -1.0810103007   -1.3420683901    7.0046066490
H        1.8957060392   -1.1078738469   -1.2332343996
H        2.2773382298    1.0251460119   -0.0128044202
H        1.4526907186   -3.2001199861    0.0358680261
H        3.7792005238   -0.8234465381    6.8982349249
H        2.2185557867    1.0616518173    2.4721001471
H        1.3980857864   -3.1585040719    2.5201425654
H        3.8896242795   -0.8171920588    4.4123534907
H        1.5778627482   -1.0526400837    8.0394238142
H       -0.3804255745   -1.2668472931    4.2234974792
22   

C        1.8693993426   -1.0924913529   -0.1504252341
C        2.2486303034    0.0630447674    0.5404292879
C        1.4552472753   -2.2245245189    0.5591867917
C        2.8387931264   -0.7581357040    6.3065432248
C        2.2164639975    0.0840298570    1.9398600882
C        1.4236993081   -2.2012857608    1.9587307750
C        2.8980574286   -0.7532402354    4.9084903479
C        1.6299322939   -1.0399216336    6.9522654009
C        0.5484441465   -1.3134614365    4.8079707677
C        1.8127546079   -1.0512419071    2.6610595672
C        1.7496278639   -1.0200745335    4.1461833151
C        0.4805120377   -1.3206981240    6.2060295546
Cl      -1.0228602082   -1.6787086788    7.0102458883
H        1.8933395244   -1.1096928710   -1.2363996515
H        2.5645992840    0.9455724902   -0.0084444121
H        1.1570807681   -3.1220000426    0.0247548219
H        3.7310329394   -0.5472793523    6.8893628007
H        2.5011299851    0.9860678692    2.4734729136
H        1.1013922541   -3.0826168846    2.5055660139
H        3.8385018267   -0.5460202734    4.4061712308
H        1.5785990985   -1.0456822118    8.0369971890
H       -0.3444855543   -1.5315898057    4.2305413161
22   

C        1.8714913150   -1.0859206253   -0.1512541396
C        2.3880087216    0.0067070379    0.5515147537
C        1.3147926180   -2.1618201638    0.5467471672
C        2.8069728287   -0.6236016661    6.3006282161
C        2.3490331427    0.0215750458    1.9508241655
C        1.2761436719   -2.1451567072    1.9461466686
C        2.8568930247   -0.6267729449    4.9022175546
C        1.6425366694   -1.0328697504    6.9583093998
C        0.5855638537   -1.4481410948    4.8249227666
C        1.7967097633   -1.0559966020    2.6642813309
C        1.7438329276   -1.0338390520    4.1472658351
C        0.5277192392   -1.4476904437    6.2233746981
Cl      -0.9228456203   -1.9584975124    7.0420179501
H        1.9012619825   -1.0983009408   -1.2371514447
H        2.8166253462    0.8462429335    0.0116818043
H        0.9132829565   -3.0123475395    0.0032517215
H        3.6731810527   -0.3070589685    6.8748338868
H        2.7412181691    0.8809564173    2.4861592039
H        0.8491800358   -2.9910114634    2.4765644680
H        3.7688381323   -0.3207601249    4.3983249236
H        1.5988167025   -1.0322972373    8.0433900106
H       -0.2880413582   -1.7632460390    4.2634486192
22   

C        1.9240080193   -1.0574261282   -0.1569313497
C        1.4077260428   -2.1643816814    0.5207302625
C        2.3712523194    0.0507966730    0.5661468279
C        0.6237520449   -1.7473967461    6.2200375714
C        1.3402876313   -2.1631384872    1.9190909397
C        2.3038859799    0.0506226423    1.9644162633
C        0.6905682263   -1.7505492517    4.8223177582
C        1.5760827829   -1.0456527422    6.9636235473
C        2.6567469082   -0.3549069902    4.9160464460
C        1.7917720734   -1.0585517889    2.6638525530
C        1.7058053476   -1.0507126246    4.1459949538
C        2.5968445183   -0.3472885879    6.3143278727
Cl       3.7912958023    0.5208767188    7.2390703214
H        1.9761560175   -1.0577178945   -1.2420568974
H        1.0610825628   -3.0289394417   -0.0381410459
H        2.7670991071    0.9163717535    0.0425986861
H       -0.1706354776   -2.2877296978    6.7272244428
H        0.9504729219   -3.0433303795    2.4196605340
H        2.6374168005    0.9341442677    2.4989615684
H       -0.0706777252   -2.2883830532    4.2666364766
H        1.5284411199   -1.0406455504    8.0485333015
H        3.4721126810    0.1759568109    4.4369643193
22   

C        1.9156345191   -1.0542913542   -0.1662577071
C        1.2709743810   -2.0915244178    0.5077696302
C        2.4950645858   -0.0157957807    0.5625104671
C        0.7185255339   -1.8558919225    6.2391498037
C        1.2098223391   -2.0926732371    1.9065387034
C        2.4335918651   -0.0179075880    1.9609022091
C        0.7809404749   -1.8549160517    4.8411146162
C        1.5880822033   -1.0544053582    6.9797540012
C        2.5811435640   -0.2583049664    4.9273787913
C        1.8001875817   -1.0645926496    2.6658985752
C        1.7043515320   -1.0469758786    4.1511526046
C        2.5247003372   -0.2540012152    6.3257397805
Cl       3.6247315584    0.7363826227    7.2451329204
H        1.9627703425   -1.0532234312   -1.2516172159
H        0.8175663664   -2.9025478622   -0.0549559899
H        2.9887072096    0.8006402452    0.0430810459
H       -0.0102982558   -2.4793373121    6.7494625540
H        0.7135437911   -2.9328603239    2.3769512887
H        2.8717451856    0.8285184223    2.4764726577
H        0.0704099987   -2.4803809234    4.3141087969
H        1.5429157034   -1.0524939672    8.0647836706
H        3.3463434178    0.3552161040    4.4682281420
22   

C        1.9066897933   -1.0512421189   -0.1814875756
C        1.1046496903   -1.9741638501    0.4866264862
C        2.6490890451   -0.1307510829    0.5549118173
C        0.8516739364   -1.9949097869    6.2463883560
C        1.0447041234   -1.9772421068    1.8855660477
C        2.5889505158   -0.1340584348    1.9532761415
C        0.9131400034   -1.9899804494    4.8482249835
C        1.5934333157   -1.0745798842    6.9849147038
C        2.4552890932   -0.1477294474    4.9289771339
C        1.7831880809   -1.0595884639    2.6581512216
C        1.7155819753   -1.0676806849    4.1487511403
C        2.3985609696   -0.1469637365    6.3273484519
Cl       3.3294167172    1.0075405717    7.2424802881
H        1.9528254205   -1.0493394124   -1.2668931121
H        0.5232280290   -2.6946606402   -0.0815955108
H        3.2768697904    0.5920528835    0.0415463954
H        0.2237883522   -2.7183098914    6.7590148623
H        0.3992692328   -2.7247019061    2.3263737741
H        3.1928555682    0.6098623061    2.4556234503
H        0.3093224648   -2.7342625305    4.3468612938
H        1.5479746850   -1.0756903230    8.0699381688
H        3.0998821567    0.5991728798    4.4867137821
22   

C        1.9088886440   -1.0314915567   -0.1735912224
C        0.9646797762   -1.8224500654    0.4811014101
C        2.7932713750   -0.2547579818    0.5746728608
C        0.9965251000   -2.1238564916    6.2350906063
C        0.9020282450   -1.8333067174    1.8797617453
C        2.7297256661   -0.2660566258    1.9729334348
C        1.0591569178   -2.1112358131    4.8371189776
C        1.5965043031   -1.1024119833    6.9724761108
C        2.3147964528   -0.0581846589    4.9167779572
C        1.7727584943   -1.0465709340    2.6575503920
C        1.7304121220   -1.0857127287    4.1448657394
C        2.2562135088   -0.0640187212    6.3150445069
Cl       2.9928596522    1.2234355504    7.2293832950
H        1.9577557382   -1.0234187419   -1.2588453769
H        0.2738211630   -2.4296658815   -0.0968290622
H        3.5382878087    0.3546242027    0.0710266619
H        0.4825447299   -2.9319176187    6.7480716683
H        0.1365838983   -2.4511848450    2.3334196284
H        3.4604146408    0.3305827986    2.5061867664
H        0.5938175560   -2.9380287941    4.3139982590
H        1.5498633495   -1.1085141340    8.0574282880
H        2.8100458486    0.7856833131    4.4526733342
22   

C        1.9067379068   -1.0300615697   -0.1593745054
C        0.8725342682   -1.7061672540    0.4920846549
C        2.8818140903   -0.3680731454    0.5902989260
C        1.1245243912   -2.1862745057    6.2345776976
C        0.8132419300   -1.7187954840    1.8907538739
C        2.8211058371   -0.3808954990    1.9888177301
C        1.1819078091   -2.1745217916    4.8364758645
C        1.6113053691   -1.0979201117    6.9631943653
C        2.2089657621    0.0081480500    4.8999767854
C        1.7828766061   -1.0524508686    2.6617666373
C        1.7291517812   -1.0788016672    4.1451978944
C        2.1547301339    0.0039538380    6.2984905157
Cl       2.7538796948    1.3665789209    7.2039517918
H        1.9534495213   -1.0203178709   -1.2447039489
H        0.1111714829   -2.2201852927   -0.0876331756
H        3.6915422678    0.1531232383    0.0875951443
H        0.7046353398   -3.0431308807    6.7539399860
H       -0.0107281388   -2.2374978579    2.3695900871
H        3.6046579408    0.1226225634    2.5456899188
H        0.8135465977   -3.0389469203    4.2936856184
H        1.5685459110   -1.1024586451    8.0483080636
H        2.6144619428    0.8850567697    4.4072668700
22   

C        1.9148085495   -1.0233134827   -0.1566813052
C        0.8042124287   -1.5818488281    0.4829401909
C        2.9589130071   -0.4877419606    0.6033763655
C        1.2366761380   -2.2518678077    6.2268470537
C        0.7396445688   -1.6059214805    1.8811715718
C        2.8925549037   -0.5121661637    2.0016238126
C        1.2895635568   -2.2390873059    4.8286056275
C        1.6090410528   -1.1140077202    6.9497167222
C        2.0866960094    0.0414994305    4.8814641780
C        1.7849248260   -1.0753860717    2.6565474456
C        1.7099504169   -1.0893605757    4.1386937575
C        2.0364489677    0.0366828357    6.2802080826
Cl       2.5013168743    1.4541955969    7.1800911760
H        1.9657498477   -1.0041421945   -1.2416927640
H       -0.0107517164   -1.9942089441   -0.1050613206
H        3.8233085378   -0.0536847786    0.1089997747
H        0.9102276249   -3.1460501587    6.7503916272
H       -0.1334175840   -2.0303885083    2.3675039318
H        3.7141915755   -0.1009713719    2.5803664157
H        1.0120439164   -3.1305855327    4.2741610666
H        1.5698444272   -1.1189180421    8.0349597890
H        2.4111713162    0.9424962209    4.3709253001
22   

C        1.9206656122   -1.0214469235   -0.1551120790
C        0.7461646222   -1.4430540043    0.4766871440
C        3.0222320260   -0.6281386717    0.6119892654
C        1.3713702880   -2.2834175691    6.2362281959
C        0.6758037405   -1.4740365758    1.8745322644
C        2.9496459064   -0.6597594102    2.0098398587
C        1.4162901045   -2.2798422720    4.8376390444
C        1.6161236495   -1.1020045736    6.9447881412
C        1.9521492845    0.0774608883    4.8619053316
C        1.7803512185   -1.0916433592    2.6528279085
C        1.6962753894   -1.0956750306    4.1372228300
C        1.9094683162    0.0825694012    6.2609734354
Cl       2.2213804099    1.5518298911    7.1436104167
H        1.9761628560   -0.9963739898   -1.2397779940
H       -0.1128336590   -1.7429678590   -0.1167162896
H        3.9343080535   -0.2971584536    0.1235712210
H        1.1506296032   -3.2030365209    6.7708368939
H       -0.2409662190   -1.7915283899    2.3625715592
H        3.8074383829   -0.3534237812    2.6014530157
H        1.2378729938   -3.1988162058    4.2868628518
H        1.5831700619   -1.0994121507    8.0302456321
H        2.1799632591    0.9976005861    4.3329707664
22   

C        1.9192494800   -1.0249508856   -0.1524259185
C        0.6987380471   -1.2834520008    0.4806392114
C        3.0676529477   -0.7966546499    0.6134058819
C        1.5297343014   -2.3117809305    6.2465354035
C        0.6289114095   -1.3160455670    1.8785134933
C        2.9950012083   -0.8298605836    2.0112569147
C        1.5732877159   -2.3113380562    4.8478669039
C        1.6226711952   -1.1039195745    6.9472272646
C        1.8045133662    0.0953267527    4.8563787149
C        1.7783251658   -1.0974185842    2.6530004908
C        1.7017855179   -1.1057792903    4.1420287539
C        1.7621365025    0.1042937310    6.2554913358
Cl       1.8846782449    1.6069851017    7.1283623898
H        1.9745795063   -0.9985910349   -1.2370696827
H       -0.1953884580   -1.4561054341   -0.1115532381
H        4.0156923437   -0.5920832248    0.1241756313
H        1.4267050834   -3.2484961885    6.7870782352
H       -0.3197889588   -1.5094609186    2.3706305799
H        3.8862565932   -0.6496333565    2.6053608745
H        1.5090698939   -3.2471148967    4.3001056686
H        1.5900348160   -1.0984917237    8.0326837867
H        1.9153655693    1.0314089147    4.3178800126
22   

C        1.9066783654   -1.0356909485   -0.1520775420
C        0.6687636755   -1.1029636130    0.4965345605
C        3.0863558006   -0.9889247915    0.5989535810
C        1.7064706943   -2.3235023857    6.2452077022
C        0.6122555796   -1.1235409782    1.8952476467
C        3.0269456028   -1.0096380539    1.9976995276
C        1.7616368403   -2.3127821488    4.8469766542
C        1.6219411897   -1.1165076208    6.9487184174
C        1.6479340767    0.1025515401    4.8614924512
C        1.7912002247   -1.0771869095    2.6538733323
C        1.7327031871   -1.0985959668    4.1458371986
C        1.5923062840    0.1013520260    6.2602018673
Cl       1.4870806577    1.6033678333    7.1364862833
H        1.9518030192   -1.0193159249   -1.2373897944
H       -0.2485465015   -1.1387931991   -0.0841815505
H        4.0485167578   -0.9360985395    0.0975348397
H        1.7292481366   -3.2671150926    6.7830871551
H       -0.3479404953   -1.1751177846    2.4002994271
H        3.9421800014   -0.9727442598    2.5814124935
H        1.8273113417   -3.2465225918    4.2958792887
H        1.5788644991   -1.1189558457    8.0338218952
H        1.6251472414    1.0456660929    4.3243209275
22   

C        1.8952352482   -1.0344473874   -0.1523765589
C        0.6718811487   -0.9045951411    0.5139934672
C        3.0785116576   -1.1722186424    0.5815544262
C        1.8839050881   -2.3111930833    6.2347644939
C        0.6335979653   -0.9101546355    1.9134280494
C        3.0377472483   -1.1774186630    1.9811245914
C        1.9557371563   -2.2794311863    4.8376350007
C        1.6203242411   -1.1350752894    6.9461786062
C        1.4988233982    0.0953949151    4.8689439935
C        1.8176335017   -1.0384836922    2.6556548496
C        1.7730643706   -1.0726723899    4.1455982304
C        1.4249512133    0.0724466072    6.2666173891
Cl       1.0895592567    1.5344828107    7.1525981990
H        1.9259906118   -1.0306700969   -1.2383085778
H       -0.2486054925   -0.8017709534   -0.0535577160
H        4.0289868611   -1.2761865420    0.0660529715
H        2.0296004759   -3.2478020518    6.7655875002
H       -0.3165069197   -0.8162892168    2.4313509249
H        3.9559498841   -1.2869208438    2.5508224438
H        2.1520446906   -3.1911143745    4.2807019212
H        1.5627597946   -1.1542748158    8.0304432997
H        1.3444005186    1.0303096208    4.3392566985
22   

C        1.8883793063   -1.0377094602   -0.1529705944
C        0.6997875682   -0.7362244729    0.5200115558
C        3.0439109216   -1.3411722421    0.5746706817
C        2.0399542798   -2.2666769705    6.2409711292
C        0.6688184309   -0.7352966724    1.9196055650
C        3.0108214006   -1.3397652062    1.9744121080
C        2.1151954163   -2.2309898005    4.8441296267
C        1.6241980906   -1.1318986010    6.9462052406
C        1.3576036848    0.0652601074    4.8632907845
C        1.8270618177   -1.0272932529    2.6580241702
C        1.7857186150   -1.0595287318    4.1437948490
C        1.2792710216    0.0377331829    6.2605669944
Cl       0.7536946672    1.4476942288    7.1385367062
H        1.9131477230   -1.0391351357   -1.2390622298
H       -0.2004618338   -0.5062178108   -0.0426950506
H        3.9671706386   -1.5786854458    0.0539757908
H        2.2998641038   -3.1754836194    6.7764609507
H       -0.2585071702   -0.5118578497    2.4390071331
H        3.9096856876   -1.5763270692    2.5361462621
H        2.4256364886   -3.1152307723    4.2950882679
H        1.5631962842   -1.1546484747    8.0302132703
H        1.0887006993    0.9730071132    4.3322493683
22   

C        1.8896566263   -1.0423464686   -0.1568806250
C        0.7456801622   -0.6022952464    0.5155982401
C        2.9934572417   -1.4960677343    0.5714608512
C        2.1733442019   -2.2324629131    6.2549064366
C        0.7071759389   -0.6144591702    1.9149359956
C        2.9530998829   -1.5080102558    1.9708818002
C        2.2346862575   -2.2058628176    4.8571913082
C        1.6387066954   -1.1435448061    6.9508947203
C        1.2273545957   -0.0092882693    4.8568203141
C        1.8123664720   -1.0628142956    2.6584295290
C        1.7677294487   -1.0902956136    4.1416390383
C        1.1625910186   -0.0282502386    6.2548446764
Cl       0.4950972224    1.3279335171    7.1211247624
H        1.9201987213   -1.0329330526   -1.2427863877
H       -0.1153092387   -0.2537801060   -0.0476386345
H        3.8837853291   -1.8378336253    0.0514078031
H        2.5370636196   -3.0998283625    6.7986137276
H       -0.1919262109   -0.2829362586    2.4256454920
H        3.8195380187   -1.8545281204    2.5259692018
H        2.6378712842   -3.0610557989    4.3231129149
H        1.5887124642   -1.1595012695    8.0355882610
H        0.8631112426    0.8642363534    4.3257494595
22   

C        1.8911976273   -1.0397638930   -0.1596790977
C        0.8004848533   -0.4813537410    0.5107395546
C        2.9272411728   -1.6258656668    0.5711035748
C        2.2884865829   -2.1603322346    6.2804747541
C        0.7459671063   -0.5101844849    1.9093087604
C        2.8710980227   -1.6545857099    1.9696342162
C        2.3269167383   -2.1565655716    4.8817038118
C        1.6532026142   -1.1209355436    6.9648802298
C        1.0986414619   -0.0795015217    4.8563782333
C        1.7773603220   -1.1009347000    2.6615884441
C        1.7289932977   -1.1180829508    4.1453811169
C        1.0564539915   -0.0760676538    6.2553311862
Cl       0.2718949440    1.2262011946    7.1063033828
H        1.9342264646   -1.0167512604   -1.2449611556
H       -0.0083669166   -0.0265090786   -0.0539702818
H        3.7804859617   -2.0549696809    0.0536102139
H        2.7496667891   -2.9731090555    6.8345093013
H       -0.1216757135   -0.0839299653    2.4023370692
H        3.7005409188   -2.0959950385    2.5122724845
H        2.8109262749   -2.9834460323    4.3721743875
H        1.6213085448   -1.1193358184    8.0503764046
H        0.6480347216    0.7548928503    4.3302407083
22   

C        1.8980603009   -1.0331215279   -0.1731787245
C        0.8839406880   -0.3551769585    0.5031451273
C        2.8495488973   -1.7490099336    0.5530056130
C        2.4093038359   -2.0737037941    6.2947489067
C        0.8195491796   -0.3959394278    1.9010808049
C        2.7840413217   -1.7892693309    1.9507160925
C        2.4309130914   -2.0844159633    4.8956159343
C        1.6731241374   -1.1039896292    6.9762150802
C        0.9868945048   -0.1583859688    4.8624000685
C        1.7593974203   -1.1220681199    2.6572113154
C        1.7116182910   -1.1353078037    4.1449256150
C        0.9605278481   -0.1411343142    6.2616278181
Cl       0.0522283075    1.0823510785    7.1068197648
H        1.9484006947   -1.0008297383   -1.2579134570
H        0.1398814807    0.2038831885   -0.0571119288
H        3.6478662254   -2.2703295316    0.0325150797
H        2.9640304875   -2.8234056686    6.8519826116
H       -0.0010199146    0.1319897029    2.3722056204
H        3.5657163958   -2.3344358455    2.4659471794
H        3.0013180484   -2.8699852499    4.4143479652
H        1.6540076948   -1.0917469891    8.0619489020
H        0.4427137801    0.6293901702    4.3567417424
22   

C        1.8784171708   -1.0458569824   -0.1862066309
C        1.0060271774   -0.2077082576    0.5047600911
C        2.7142781244   -1.9009918173    0.5282931366
C        2.5507678288   -1.9574362209    6.3014593354
C        0.9693463852   -0.2243208145    1.9043124404
C        2.6769274294   -1.9169263869    1.9274394245
C        2.5905390630   -1.9439128906    4.9026564373
C        1.6757430928   -1.1164500918    6.9865284085
C        0.8840314072   -0.2522162932    4.8756588387
C        1.8012636599   -1.0769674580    2.6562394865
C        1.7601218999   -1.0926428854    4.1478339143
C        0.8386673775   -0.2601985458    6.2744908945
Cl      -0.2587672520    0.7949710512    7.1225291440
H        1.9065146105   -1.0326063679   -1.2721484279
H        0.3512007799    0.4618654199   -0.0456729985
H        3.3973493666   -2.5576185122   -0.0030176318
H        3.2037849868   -2.6253843465    6.8561989526
H        0.2653820492    0.4556820582    2.3649123716
H        3.3550120698   -2.6070209123    2.4112649938
H        3.2944073330   -2.6238054744    4.4415912729
H        1.6420115540   -1.1241000675    8.0719522408
H        0.2064463562    0.4373913788    4.3918091138
