22   

C        1.8652871121   -1.0661952295   -0.1744119074
C        1.1521683855   -0.0844236718    0.5133839287
C        2.5626911996   -2.0385379962    0.5420866269
C        2.6649809369   -1.8157802131    6.3044914359
C        1.1394482465   -0.0730449816    1.9132880421
C        2.5494552762   -2.0260309228    1.9417946516
C        2.7295918291   -1.7829406733    4.9070282501
C        1.6617180036   -1.1159579376    6.9756432959
C        0.7900120004   -0.3577175536    4.8546779513
C        1.8458659547   -1.0347861920    2.6605102600
C        1.8023724922   -1.0437055815    4.1483916348
C        0.7188756057   -0.3857643740    6.2521695759
Cl      -0.5463362408    0.4769537172    7.0835690204
H        1.8745141549   -1.0754153297   -1.2607158296
H        0.6072703611    0.6756522367   -0.0392739736
H        3.1112458915   -2.8119493735    0.0120700619
H        3.3988530264   -2.3845150307    6.8686336491
H        0.5859801320    0.7243589393    2.3948019192
H        3.0825141649   -2.8220796448    2.4476136196
H        3.5391882581   -2.3267673709    4.4348805488
H        1.6077117579   -1.1390157441    8.0600256279
H        0.0159822784    0.1976042408    4.3399560877
22   

C        1.8820859456   -1.0655709160   -0.1571688528
C        1.2828053809   -0.0050013128    0.5261939857
C        2.4486532282   -2.1206843053    0.5616298653
C        2.7314610057   -1.6806370799    6.3069729817
C        1.2513589074    0.0003645067    1.9257567691
C        2.4170577973   -2.1136338843    1.9612078834
C        2.7884021354   -1.6678720082    4.9088814893
C        1.6552448555   -1.0829671483    6.9680170649
C        0.6978363007   -0.4642917968    4.8376320024
C        1.8215456537   -1.0507702391    2.6664203553
C        1.7750222552   -1.0547873246    4.1503950299
C        0.6337661635   -0.4732759695    6.2357242533
Cl      -0.7143403930    0.2640213909    7.0570540303
H        1.9058555706   -1.0705103828   -1.2432752142
H        0.8429263493    0.8185606895   -0.0290294545
H        2.9094374818   -2.9506915808    0.0336852208
H        3.5256450892   -2.1523360741    6.8788289417
H        0.7942057583    0.8454594159    2.4301674817
H        2.8446658511   -2.9571520216    2.4930972303
H        3.6425885241   -2.1234651923    4.4185484657
H        1.6066287565   -1.0907051187    8.0528662216
H       -0.1191716201   -0.0050237639    4.2920303183
22   

C        1.8903515549   -1.0593711223   -0.1503185504
C        1.4067865212    0.0546951414    0.5422310358
C        2.3246543594   -2.1840353117    0.5576750892
C        2.7959683813   -1.5639670148    6.2941953771
C        1.3560480750    0.0424516740    1.9411845361
C        2.2736529849   -2.1944475443    1.9567526690
C        2.8332146591   -1.5736498270    4.8954165028
C        1.6697004032   -1.0684034641    6.9589474575
C        0.6252046159   -0.5938446548    4.8317957364
C        1.7841173881   -1.0842979898    2.6639067469
C        1.7452959146   -1.0927938592    4.1473274417
C        0.5803373847   -0.5805863467    6.2306749301
Cl      -0.8225516384    0.0378584973    7.0581050683
H        1.9297715077   -1.0505276192   -1.2359423676
H        1.0732728608    0.9318458652   -0.0049197708
H        2.7002343612   -3.0511634980    0.0219762503
H        3.6427529147   -1.9374204639    6.8631620683
H        0.9911749182    0.9187991426    2.4684510681
H        2.6057858360   -3.0766685560    2.4955385024
H        3.7168159067   -1.9469216593    4.3864237144
H        1.6361907473   -1.0582823853    8.0443464769
H       -0.2286016217   -0.2211912752    4.2751029972
22   

C        1.8861693743   -1.0594069327   -0.1460153666
C        1.5408388757    0.1012344859    0.5541330983
C        2.1706639986   -2.2369640338    0.5534290790
C        2.8296196558   -1.4288127472    6.2875062020
C        1.4770951358    0.0822081567    1.9524893762
C        2.1064267458   -2.2538657454    1.9519845437
C        2.8579240961   -1.4524009743    4.8886683277
C        1.6586884992   -1.0530972433    6.9551285404
C        0.5527570354   -0.7241760554    4.8310853331
C        1.7495135613   -1.0986058406    2.6620860418
C        1.7150827967   -1.1100584424    4.1483505031
C        0.5163377562   -0.6974234881    6.2300967467
Cl      -0.9388840918   -0.2222056227    7.0616928925
H        1.9363102855   -1.0453893036   -1.2311418695
H        1.3254596967    1.0185737100    0.0136791238
H        2.4421802621   -3.1385450872    0.0117869241
H        3.7167962793   -1.6977392401    6.8539224499
H        1.2196616549    0.9880111910    2.4936790817
H        2.3284525848   -3.1696987939    2.4918177329
H        3.7699866094   -1.7320380274    4.3693910043
H        1.6318342988   -1.0320164932    8.0405533279
H       -0.3339434204   -0.4473009346    4.2694604745
22   

C        1.8871350384   -1.0678903239   -0.1450431480
C        1.7115138076    0.1298869959    0.5563576894
C        2.0053863648   -2.2745830347    0.5532802310
C        2.8664230966   -1.2691217989    6.2912822052
C        1.6518194828    0.1191497109    1.9550143484
C        1.9452879433   -2.2827794383    1.9521383628
C        2.9005042663   -1.2904607791    4.8925173744
C        1.6551157683   -1.0454451340    6.9557869795
C        0.5207368283   -0.8635879650    4.8288747668
C        1.7601612421   -1.0886231026    2.6611787249
C        1.7249479228   -1.0963011851    4.1517417739
C        0.4778196034   -0.8401817872    6.2278264779
Cl      -1.0282107670   -0.5548332289    7.0557464830
H        1.9339963434   -1.0606241292   -1.2303818608
H        1.6237342337    1.0685476213    0.0167339059
H        2.1448394764   -3.2052569914    0.0107374874
H        3.7792548318   -1.4230314477    6.8598634986
H        1.5223849812    1.0494690164    2.5004545516
H        2.0396578947   -3.2191505578    2.4943084586
H        3.8395550260   -1.4559013138    4.3722375674
H        1.6232292589   -1.0269614765    8.0411225370
H       -0.3906778913   -0.7016248227    4.2618001623
22   

C        1.8770464062   -1.0790290461   -0.1465643896
C        1.9016233227    0.1358288381    0.5471119496
C        1.8125628358   -2.2849798051    0.5601396002
C        2.8893632863   -1.0907716084    6.3028693015
C        1.8618624204    0.1430628137    1.9465281020
C        1.7729032993   -2.2749138386    1.9597073808
C        2.9384748042   -1.0969406571    4.9043882578
C        1.6527464100   -1.0437458466    6.9567086941
C        0.5233634882   -1.0093472341    4.8197192114
C        1.7974820640   -1.0625048667    2.6608618016
C        1.7546367197   -1.0562277842    4.1535174278
C        0.4647956562   -1.0028469967    6.2182964879
Cl      -1.0740681316   -0.9443414776    7.0328367726
H        1.9075176221   -1.0859041544   -1.2324888566
H        1.9510862833    1.0734275046    0.0008188238
H        1.7928008579   -3.2292924376    0.0236256091
H        3.8095818892   -1.1224335536    6.8794395440
H        1.8802454167    1.0852815190    2.4865289711
H        1.7222280467   -3.2105621236    2.5090049571
H        3.8954000926   -1.1333569612    4.3916878083
H        1.6087910347   -1.0387492818    8.0417682289
H       -0.3963961149   -0.9776926951    4.2438936271
22   

C        1.8727057924   -1.0908700737   -0.1472276955
C        2.0887301116    0.1088367370    0.5392690430
C        1.6237614320   -2.2680099737    0.5667878975
C        2.8685790692   -0.9150572520    6.3128403030
C        2.0583118205    0.1291716269    1.9387864214
C        1.5939153193   -2.2448390438    1.9664108669
C        2.9311753123   -0.9102793640    4.9149019638
C        1.6316022565   -1.0428367275    6.9548009428
C        0.5289668208   -1.1623546497    4.8070488186
C        1.8187629009   -1.0492129978    2.6618444988
C        1.7598458739   -1.0256666352    4.1515139173
C        0.4570004634   -1.1685458747    6.2049665908
Cl      -1.0819188723   -1.3340736118    7.0045482041
H        1.8952642135   -1.1078123178   -1.2332352394
H        2.2772461435    1.0251508784   -0.0128123120
H        1.4520401574   -3.2000087110    0.0358788729
H        3.7790430014   -0.8224273126    6.8982563001
H        2.2186940113    1.0616260680    2.4721044945
H        1.3976354846   -3.1584043071    2.5201705155
H        3.8897700723   -0.8186259378    4.4123675846
H        1.5772966660   -1.0479273152    8.0393909058
H       -0.3809395223   -1.2622150894    4.2234245854
22   

C        1.8686864117   -1.0923140815   -0.1504090982
C        2.2483405083    0.0631027570    0.5404215518
C        1.4543069662   -2.2242531464    0.5592297081
C        2.8382121043   -0.7560312954    6.3065238110
C        2.2164639975    0.0840298570    1.9398600882
C        1.4230305310   -2.2010644569    1.9587814173
C        2.8980574286   -0.7532402354    4.9084903479
C        1.6285778661   -1.0347456421    6.9521547421
C        0.5472082848   -1.3085681097    4.8078209018
C        1.8127546079   -1.0512419071    2.6610595672
C        1.7496278639   -1.0200745335    4.1461833151
C        0.4787762288   -1.3138750947    6.2058655720
Cl      -1.0256697347   -1.6675059509    7.0100110491
H        1.8924273790   -1.1094778214   -1.2363885134
H        2.5644048115    0.9455822797   -0.0084748387
H        1.1557369500   -3.1216036719    0.0248132373
H        3.7305757891   -0.5458745725    6.8894066507
H        2.5014096171    0.9859780914    2.4734768836
H        1.1004569750   -3.0822508427    2.5056948259
H        3.8389652888   -0.5480334723    4.4062108483
H        1.5768608226   -1.0390975126    8.0368749092
H       -0.3460484170   -1.5250826109    4.2302882795
22   

C        1.8707583338   -1.0857074562   -0.1512083724
C        2.3877064716    0.0067652505    0.5515048491
C        1.3138309487   -2.1614677683    0.5468456729
C        2.8061467259   -0.6215971203    6.3005925150
C        2.3490331427    0.0215750458    1.9508241655
C        1.2754632090   -2.1448568058    1.9462541170
C        2.8568930247   -0.6267729449    4.9022175546
C        1.6405872849   -1.0279181786    6.9581397508
C        0.5837979195   -1.4434285459    4.8246958682
C        1.7967097633   -1.0559966020    2.6642813309
C        1.7438329276   -1.0338390520    4.1472658351
C        0.5252179386   -1.4411436956    6.2231167433
Cl      -0.9268974776   -1.9477540886    7.0416174189
H        1.9003222846   -1.0980483925   -1.2371118238
H        2.8164146630    0.8462223610    0.0116219664
H        0.9119071588   -3.0118214952    0.0033848810
H        3.6725510583   -0.3057393389    6.8748796874
H        2.7415057898    0.8808246845    2.4861627668
H        0.8482168347   -2.9904654229    2.4768469418
H        3.7695095552   -0.3226938615    4.3983644217
H        1.5963162180   -1.0260068288    8.0431965622
H       -0.2902457765   -1.7569711378    4.2630221576
22   

C        1.9244177904   -1.0574077078   -0.1568189990
C        1.4079032194   -2.1643381247    0.5207376843
C        2.3717776219    0.0507332731    0.5663425489
C        0.6248725009   -1.7488202656    6.2200936425
C        1.3402876313   -2.1631384872    1.9190909397
C        2.3042494311    0.0505194690    1.9646043995
C        0.6905682263   -1.7505492517    4.8223177582
C        1.5787931727   -1.0492075294    6.9636745658
C        2.6592378593   -0.3583549923    4.9160122244
C        1.7917720734   -1.0585517889    2.6638525530
C        1.7058053476   -1.0507126246    4.1459949538
C        2.6003619173   -0.3520301694    6.3143440921
Cl       3.7970156721    0.5130874749    7.2390928835
H        1.9766857979   -1.0576702687   -1.2419388474
H        1.0612188275   -3.0288307207   -0.0382091607
H        2.7678526530    0.9162477674    0.0428673319
H       -0.1698379280   -2.2886295720    6.7273323473
H        0.9502991409   -3.0432542463    2.4196678230
H        2.6379321868    0.9338268875    2.4994327419
H       -0.0716351102   -2.2869578800    4.2665593980
H        1.5319043878   -1.0451452153    8.0486211409
H        3.4752724353    0.1712949074    4.4367032366
22   

C        1.9155025027   -1.0540334323   -0.1661832003
C        1.2709423065   -2.0913969602    0.5077677405
C        2.4948372154   -0.0155093542    0.5626469187
C        0.7194093575   -1.8567848585    6.2391886130
C        1.2098223391   -2.0926732371    1.9065387034
C        2.4333949706   -0.0177405335    1.9610397411
C        0.7809404749   -1.8549160517    4.8411146162
C        1.5902513339   -1.0566672953    6.9797828028
C        2.5831701280   -0.2605686522    4.9273378237
C        1.8001875817   -1.0645926496    2.6658985752
C        1.7043515320   -1.0469758786    4.1511526046
C        2.5275438792   -0.2570637148    6.3257333086
Cl       3.6293807800    0.7313239617    7.2451093938
H        1.9626167028   -1.0528782676   -1.2515436139
H        0.8175915278   -2.9024104073   -0.0550184206
H        2.9883633065    0.8010281488    0.0432667694
H       -0.0097012814   -2.4798631945    6.7495398562
H        0.7136321465   -2.9328956639    2.3769969434
H        2.8713683564    0.8286429664    2.4768648322
H        0.0696068749   -2.4794083713    4.3140218614
H        1.5456789362   -1.0553416860    8.0648379498
H        3.3489946187    0.3520267095    4.4679605945
22   

C        1.9066913709   -1.0512434212   -0.1814875056
C        1.1046502918   -1.9741643416    0.4866265098
C        2.6490912619   -0.1307529253    0.5549119154
C        0.8516726448   -1.9949087263    6.2463883007
C        1.0447041234   -1.9772421068    1.8855660477
C        2.5889521881   -0.1340598334    1.9532762163
C        0.9131400034   -1.9899804494    4.8482249835
C        1.5934300132   -1.0745771396    6.9849145679
C        2.4552857144   -0.1477266198    4.9289769999
C        1.7831880809   -1.0595884639    2.6581512216
C        1.7155819753   -1.0676806849    4.1487511403
C        2.3985564462   -0.1469599575    6.3273482740
Cl       3.3294092026    1.0075468577    7.2424799940
H        1.9528273979   -1.0493410362   -1.2668930255
H        0.5232283233   -2.6946608679   -0.0815955049
H        3.2768730190    0.5920501967    0.0415465414
H        0.2237876502   -2.7183093379    6.7590148174
H        0.3992684357   -2.7247012331    2.3263737465
H        3.1928582621    0.6098600471    2.4556235697
H        0.3093240007   -2.7342638084    4.3468613427
H        1.5479705399   -1.0756868836    8.0699379978
H        3.0998771389    0.5991770807    4.4867135810
22   

C        1.9091612946   -1.0315742174   -0.1734996025
C        0.9648107282   -1.8224596287    0.4811066158
C        2.7935854159   -0.2549274308    0.5748317254
C        0.9954897281   -2.1231401011    6.2350506592
C        0.9020282450   -1.8333067174    1.8797617453
C        2.7299169607   -0.2662167187    1.9730867312
C        1.0591569178   -2.1112358131    4.8371189776
C        1.5938980293   -1.1006683144    6.9723089106
C        2.3122176647   -0.0565840776    4.9165475991
C        1.7727584943   -1.0465709340    2.6575503920
C        1.7304121220   -1.0857127287    4.1448657394
C        2.2527040515   -0.0617513354    6.3147770110
Cl       2.9870718092    1.2271332460    7.2289305083
H        1.9581179385   -1.0235075667   -1.2587498206
H        0.2739551473   -2.4296194806   -0.0968862989
H        3.5387192305    0.3543593825    0.0712442967
H        0.4819183088   -2.9314185768    6.7480988356
H        0.1365317837   -2.4511023919    2.3334602141
H        3.4605817767    0.3302474122    2.5066001572
H        0.5949195006   -2.9386534088    4.3139895357
H        1.5465753684   -1.1062864594    8.0572342200
H        2.8064593256    0.7877298740    4.4521482500
22   

C        1.9066792144   -1.0296508846   -0.1592806806
C        0.8725460251   -1.7059850119    0.4920857153
C        2.8816505736   -0.3675599383    0.5904669561
C        1.1229272595   -2.1854197228    6.2345186285
C        0.8132419300   -1.7187954840    1.8907538739
C        2.8209316458   -0.3805488032    1.9889839875
C        1.1819078091   -2.1745217916    4.8364758645
C        1.6073369487   -1.0958752144    6.9629621164
C        2.2051445902    0.0099926091    4.8996743800
C        1.7828766061   -1.0524508686    2.6617666373
C        1.7291517812   -1.0788016672    4.1451978944
C        2.1494563606    0.0065832061    6.2981335509
Cl       2.7452266636    1.3708407043    7.2033640556
H        1.9533984735   -1.0197837802   -1.2446087464
H        0.1112583212   -2.2200347468   -0.0877027224
H        3.6912758145    0.1538531894    0.0878226266
H        0.7036064838   -3.0424999237    6.7539708087
H       -0.0106235328   -2.2376551571    2.3696088404
H        3.6042320910    0.1230919956    2.5461221440
H        0.8151182135   -3.0396417691    4.2937161820
H        1.5635159499   -1.0998374391    8.0480357920
H        2.6093426342    0.8873377095    4.4066533091
22   

C        1.9145854991   -1.0225855536   -0.1566105337
C        0.8041511635   -1.5815470908    0.4829416846
C        2.9585462828   -0.4867893341    0.6035050349
C        1.2346649031   -2.2510610784    6.2267766842
C        0.7396445688   -1.6059214805    1.8811715718
C        2.8922435260   -0.5114942589    2.0017507561
C        1.2895635568   -2.2390873059    4.8286056275
C        1.6040767061   -1.1121024721    6.9494574536
C        2.0819747449    0.0432262108    4.8811480539
C        1.7849248260   -1.0753860717    2.6565474456
C        1.7099504169   -1.0893605757    4.1386937575
C        2.0298874306    0.0391272553    6.2798282686
Cl       2.4905489475    1.4581531606    7.1794883153
H        1.9654852814   -1.0032078949   -1.2416203259
H       -0.0107313936   -1.9939956478   -0.1051109890
H        3.8227622674   -0.0523217890    0.1091753146
H        0.9089002419   -3.1454360788    6.7504183680
H       -0.1332827561   -2.0306746230    2.3674993362
H        3.7136246936   -0.1000273313    2.5806720105
H        1.0139825400   -3.1312386252    4.2742396644
H        1.5635366946   -1.1164745842    8.0346535471
H        2.4048909552    0.9446541192    4.3703736202
22   

C        1.9204796397   -1.0207376642   -0.1550705203
C        0.7461035862   -1.4427649433    0.4766902693
C        3.0219484284   -0.6272044543    0.6120643390
C        1.3692611202   -2.2828575523    6.2361597372
C        0.6758037405   -1.4740365758    1.8745322644
C        2.9494152067   -0.6590960744    2.0099123272
C        1.4162901045   -2.2798422720    4.8376390444
C        1.6109391285   -1.1006989481    6.9445536140
C        1.9472499930    0.0786526861    4.8616364450
C        1.7803512185   -1.0916433592    2.6528279085
C        1.6962753894   -1.0956750306    4.1372228300
C        1.9026352774    0.0842417286    6.2606439863
Cl       2.2101605169    1.5545336746    7.1431020402
H        1.9759370185   -0.9954660585   -1.2397338927
H       -0.1128446212   -1.7427725242   -0.1167383426
H        3.9338943374   -0.2958233323    0.1236752945
H        1.1492187869   -3.2025959833    6.7708510228
H       -0.2408734032   -1.7918068636    2.3625662629
H        3.8070572319   -0.3524992710    2.6016102229
H        1.2398888863   -3.1992605784    4.2869534735
H        1.5765736976   -1.0977368043    8.0299664232
H        2.1734509308    0.9991073507    4.3325559363
22   

C        1.9191945469   -1.0246065251   -0.1524110194
C        0.6987189637   -1.2833123193    0.4806417057
C        3.0675705769   -0.7962010112    0.6134315818
C        1.5282229382   -2.3116041267    6.2464872628
C        0.6289114095   -1.3160455670    1.8785134933
C        2.9949344177   -0.8295378997    2.0112808698
C        1.5732877159   -2.3113380562    4.8478669039
C        1.6189681102   -1.1035151047    6.9470832510
C        1.8010272266    0.0956979094    4.8562266372
C        1.7783251658   -1.0974185842    2.6530004908
C        1.7017855179   -1.1057792903    4.1420287539
C        1.7572658113    0.1048093968    6.2552964612
Cl       1.8766799848    1.6078149902    7.1280597872
H        1.9745129079   -0.9981506171   -1.2370530482
H       -0.1953941377   -1.4560132647   -0.1115571590
H        4.0155732237   -0.5914353113    0.1242114327
H        1.4256837295   -3.2483500234    6.7870702804
H       -0.3197617779   -1.5095988647    2.3706296923
H        3.8861507043   -0.6491859131    2.6054052516
H        1.5105040764   -3.2472467647    4.3001643125
H        1.5853193920   -1.0979720916    8.0325082923
H        1.9107329485    1.0318790505    4.3176651679
22   

C        1.9066782654   -1.0356897647   -0.1520775426
C        0.6687636227   -1.1029631250    0.4965345701
C        3.0863556930   -0.9889232409    0.5989535725
C        1.7064685927   -2.3235024902    6.2452076162
C        0.6122555796   -1.1235409782    1.8952476467
C        3.0269455388   -1.0096369502    1.9976995210
C        1.7616368403   -2.3127821488    4.8469766542
C        1.6219360615   -1.1165078665    6.9487182119
C        1.6479293289    0.1025513145    4.8614922620
C        1.7912002247   -1.0771869095    2.6538733323
C        1.7327031871   -1.0985959668    4.1458371986
C        1.5922995877    0.1013517078    6.2602015996
Cl       1.4870696187    1.6033673159    7.1364858354
H        1.9518028788   -1.0193143944   -1.2373897914
H       -0.2485465610   -1.1387928508   -0.0841815208
H        4.0485166081   -0.9360963152    0.0975348208
H        1.7292466960   -3.2671151693    6.7830870873
H       -0.3479404662   -1.1751182708    2.4002994340
H        3.9421799278   -0.9727427626    2.5814124756
H        1.8273133138   -3.2465224980    4.2958793649
H        1.5788579380   -1.1189561583    8.0338216319
H        1.6251409760    1.0456657926    4.3243206716
22   

C        1.8952008706   -1.0347273348   -0.1523801784
C        0.6718657117   -0.9047099242    0.5139924754
C        3.0784685730   -1.1725806026    0.5815494007
C        1.8854123706   -2.3108709946    6.2348480614
C        0.6335979653   -0.9101546355    1.9134280494
C        3.0377169276   -1.1776728412    1.9811201775
C        1.9557371563   -2.2794311863    4.8376350007
C        1.6240195152   -1.1343156969    6.9463556185
C        1.5023028734    0.0961006654    4.8690931683
C        1.8176335017   -1.0384836922    2.6556548496
C        1.7730643706   -1.0726723899    4.1455982304
C        1.4298119385    0.0734287045    6.2668442877
Cl       1.0975412061    1.5360778066    7.1529893478
H        1.9259466578   -1.0310285253   -1.2383127390
H       -0.2486176841   -0.8018455024   -0.0535566454
H        4.0289267029   -1.2767003609    0.0660470824
H        2.0306160755   -3.2475568647    6.7656702077
H       -0.3164874065   -0.8161640383    2.4313635196
H        3.9559085516   -1.2872630452    2.5508197364
H        2.1506104909   -3.1913825249    4.2806367448
H        1.5674645795   -1.1533027928    8.0306771860
H        1.3490276291    1.0312252446    4.3394430854
22   

C        1.8882147160   -1.0382797050   -0.1529786374
C        0.6997124288   -0.7364581498    0.5200107829
C        3.0437073678   -1.3419041907    0.5746582668
C        2.0420054643   -2.2659129415    6.2410988521
C        0.6688184309   -0.7352966724    1.9196055650
C        3.0106812993   -1.3402760654    1.9744014599
C        2.1151954163   -2.2309898005    4.8441296267
C        1.6292493288   -1.1300960066    6.9464466184
C        1.3623791214    0.0669170635    4.8634663857
C        1.8270618177   -1.0272932529    2.6580241702
C        1.7857186150   -1.0595287318    4.1437948490
C        1.2859302671    0.0400557675    6.2608617786
Cl       0.7646286792    1.4514629433    7.1390557459
H        1.9129374179   -1.0398664071   -1.2390710875
H       -0.2005212155   -0.5063680467   -0.0426868099
H        3.9668864623   -1.5797223019    0.0539595313
H        2.3012259222   -3.1749028231    6.7766120751
H       -0.2584082340   -0.5115924651    2.4390714752
H        3.9095015309   -1.5770097751    2.5361353034
H        2.4236630175   -3.1158661318    4.2949976798
H        1.5696208991   -1.1523394923    8.0305416078
H        1.0950548686    0.9751297240    4.3324225590
22   

C        1.8893917380   -1.0429348197   -0.1568969854
C        0.7455555392   -0.6025353813    0.5155951699
C        2.9931371626   -1.4968137747    0.5714358195
C        2.1752505402   -2.2314637385    6.2550077716
C        0.7071759389   -0.6144591702    1.9149359956
C        2.9528857591   -1.5085262102    1.9708636462
C        2.2346862575   -2.2058628176    4.8571913082
C        1.6434278932   -1.1411800085    6.9510450091
C        1.2318518428   -0.0071449794    4.8568808189
C        1.8123664720   -1.0628142956    2.6584295290
C        1.7677294487   -1.0902956136    4.1416390383
C        1.1688361875   -0.0252141427    6.2549982875
Cl       0.5053448202    1.3328542991    7.1213988941
H        1.9198607212   -1.0336902528   -1.2428062430
H       -0.1154067792   -0.2539282208   -0.0476259358
H        3.8833385213   -1.8388904003    0.0513700703
H        2.5383058085   -3.0990757934    6.7987657373
H       -0.1917346472   -0.2826390387    2.4258005227
H        3.8192546181   -1.8552223523    2.5259506416
H        2.6360137399   -3.0618883256    4.3230428496
H        1.5947076248   -1.1564699656    8.0358061976
H        0.8691053295    0.8669273932    4.3256780738
22   

C        1.8909992087   -1.0400929380   -0.1596863090
C        0.8003849739   -0.4814853440    0.5107368031
C        2.9270088824   -1.6262747118    0.5710937619
C        2.2899780591   -2.1593154669    6.2805184866
C        0.7459671063   -0.5101844849    1.9093087604
C        2.8709465282   -1.6548646079    1.9696334089
C        2.3269167383   -2.1565655716    4.8817038118
C        1.6569291077   -1.1185101667    6.9648858506
C        1.1022499688   -0.0773170487    4.8562910002
C        1.7773603220   -1.1009347000    2.6615884441
C        1.7289932977   -1.1180829508    4.1453811169
C        1.0614194087   -0.0729526242    6.2552816714
Cl       0.2800456123    1.2312494549    7.1062208731
H        1.9339764811   -1.0171787515   -1.2449724853
H       -0.0084423232   -0.0265826130   -0.0539609834
H        3.7801605280   -2.0555504914    0.0535893078
H        2.7506087403   -2.9723578006    6.8346207551
H       -0.1214697994   -0.0837520170    2.4025735270
H        3.7003172906   -2.0963801669    2.5123025219
H        2.8094380699   -2.9842925804    4.3721260794
H        1.6260266843   -1.1162277617    8.0504095786
H        0.6528998992    0.7575987227    4.3298831297
22   

C        1.8981580043   -1.0330024923   -0.1731507227
C        0.8839733627   -0.3551216631    0.5031514300
C        2.8496709126   -1.7488603509    0.5530476922
C        2.4102531840   -2.0728999176    6.2947575767
C        0.8195491796   -0.3959394278    1.9010808049
C        2.7841216221   -1.7891656196    1.9507574713
C        2.4309130914   -2.0844159633    4.8956159343
C        1.6755303570   -1.1020268617    6.9761685368
C        0.9892994395   -0.1565651070    4.8622903308
C        1.7593974203   -1.1220681199    2.6572113154
C        1.7116182910   -1.1353078037    4.1449256150
C        0.9637841936   -0.1385699865    6.2615239145
Cl       0.0576063199    1.0865388574    7.1066384170
H        1.9485340643   -1.0006812748   -1.2578829271
H        0.1399023230    0.2039182142   -0.0571098169
H        3.6480374765   -2.2701156305    0.0325683836
H        2.9645907341   -2.8228528283    6.8520406690
H       -0.0010067675    0.1318713331    2.3723973856
H        3.5657909700   -2.3342766749    2.4660683289
H        3.0002945312   -2.8707042580    4.4142918837
H        1.6570382281   -1.0892435467    8.0619069884
H        0.4460958822    0.6317454769    4.3563859066
22   

C        1.8784171812   -1.0458569500   -0.1862066356
C        1.0060271887   -0.2077082325    0.5047600953
C        2.7142781280   -1.9009917963    0.5282931280
C        2.5507678628   -1.9574361627    6.3014593363
C        0.9693463852   -0.2243208145    1.9043124404
C        2.6769274342   -1.9169263788    1.9274394185
C        2.5905390630   -1.9439128906    4.9026564373
C        1.6757431438   -1.1164500173    6.9865284115
C        0.8840314146   -0.2522162824    4.8756588375
C        1.8012636599   -1.0769674580    2.6562394865
C        1.7601218999   -1.0926428854    4.1478339143
C        0.8386674076   -0.2601984988    6.2744908931
Cl      -0.2587672002    0.7949711274    7.1225291331
H        1.9065146261   -1.0326063155   -1.2721484326
H        0.3512007952    0.4618654621   -0.0456729753
H        3.3973493673   -2.5576184839   -0.0030176512
H        3.2037850422   -2.6253842575    6.8561989579
H        0.2653820516    0.4556820527    2.3649123818
H        3.3550120731   -2.6070209107    2.4112649822
H        3.2944073257   -2.6238054796    4.4415912694
H        1.6420116446   -1.1240999590    8.0719522459
H        0.2064463375    0.4373913617    4.3918091115
