6    

H       -0.5835523004   -0.0617035246   -0.7591618920
C        0.0265029860    0.3285873984    0.0622781325
H       -0.6533856369    0.6941053510    0.8391839863
O        0.8555078794   -0.6603517933    0.5691650396
H        0.3693021461   -1.4836636018    0.6803959269
Br       1.1592517316    1.7752291708   -0.5751771856
6    

H       -0.5824575754   -0.0853577239   -0.7305028491
C        0.0176082184    0.3321279475    0.0848353986
H       -0.6662761045    0.7412285097    0.8361139337
O        0.8212930762   -0.6421295313    0.6507257606
H        0.4136791201   -1.5103746114    0.5776206288
Br       1.1692762218    1.7554532357   -0.6005047357
6    

H       -0.5903984438   -0.1047932712   -0.7069937902
C        0.0036071176    0.3309986617    0.1031364600
H       -0.6796734535    0.7867322226    0.8276636417
O        0.7673518483   -0.6344633477    0.7259371857
H        0.4809435434   -1.5203888993    0.4858333382
Br       1.1874069145    1.7302239960   -0.6185556166
6    

H       -0.6085656657   -0.1184798269   -0.6874202127
C       -0.0146775220    0.3262446868    0.1179130864
H       -0.6934810683    0.8254086827    0.8176126403
O        0.6999654124   -0.6364032540    0.7873022328
H        0.5667271380   -1.5107512156    0.4089969529
Br       1.2109382935    1.6979839820   -0.6321376192
6    

H       -0.2609703650   -0.1099419075   -0.9365209318
C       -0.0530071288    0.2861443257    0.0629546713
H       -0.9943435616    0.6312924461    0.5037341947
O        0.4857215433   -0.6808208071    0.8633354941
H        0.8221980589   -1.4253921497    0.3532507893
Br       1.1653807057    1.8663605049   -0.0828260891
6    

H       -0.2894102237   -0.1082286431   -0.9394009698
C       -0.0763876410    0.2780286010    0.0628936958
H       -1.0095475860    0.6555412127    0.4944402058
O        0.4121291871   -0.7123613411    0.8589669340
H        0.9225111436   -1.3576735426    0.3551123988
Br       1.2029454636    1.8166571064   -0.0823396725
6    

H       -0.3229649022   -0.0950246199   -0.9462770154
C       -0.0986849618    0.2718421465    0.0608859272
H       -1.0205574952    0.6750101454    0.4934909085
O        0.3506340732   -0.7494748583    0.8376581207
H        1.0134383043   -1.2794657849    0.3760674444
Br       1.2388743898    1.7587359899   -0.0823010727
6    

H       -0.3622344760   -0.0693507823   -0.9565311296
C       -0.1171924212    0.2683668356    0.0560238990
H       -1.0241932088    0.6904915244    0.5017834309
O        0.3026500753   -0.7917456530    0.8006290524
H        1.0910032222   -1.1983819384    0.4167365848
Br       1.2697432603    1.6981847423   -0.0830490317
6    

H       -0.4095509588   -0.0341308676   -0.9678670345
C       -0.1305534697    0.2654958399    0.0479206866
H       -1.0188211858    0.6980048687    0.5206288545
O        0.2692791499   -0.8379763960    0.7479846288
H        1.1516847444   -1.1232876677    0.4770211886
Br       1.2926675790    1.6441641515   -0.0870705316
6    

H       -0.4629708035    0.0076064718   -0.9791095470
C       -0.1379202271    0.2621609083    0.0353002704
H       -1.0040046815    0.6949727180    0.5472556988
O        0.2513387554   -0.8849762839    0.6811041859
H        1.1919756744   -1.0600821392    0.5556259292
Br       1.3067299337    1.6027725353   -0.0941469222
6    

H       -0.5180100403    0.0531120100   -0.9878668782
C       -0.1394461515    0.2585205691    0.0191075890
H       -0.9791591357    0.6819408855    0.5804570272
O        0.2490553683   -0.9282219899    0.6033881813
H        1.2083814522   -1.0099822520    0.6461968028
Br       1.3139865548    1.5763468926   -0.1037999700
6    

H       -0.5684073166    0.0955092160   -0.9930921893
C       -0.1369423178    0.2528388716    0.0011881002
H       -0.9457523693    0.6582153923    0.6184434713
O        0.2623554178   -0.9632881261    0.5193244349
H        1.1995706802   -0.9710181467    0.7414743083
Br       1.3173629474    1.5651724938   -0.1165163957
6    

H       -0.6108100910    0.1315246904   -0.9936920047
C       -0.1313884678    0.2461613851   -0.0156689050
H       -0.9039699240    0.6281274087    0.6601422557
O        0.2892211148   -0.9870997005    0.4346908973
H        1.1649078092   -0.9434950191    0.8348089703
Br       1.3201677998    1.5664709752   -0.1340668405
6    

H       -0.6448754234    0.1580049218   -0.9880042991
C       -0.1230715823    0.2396502919   -0.0285349156
H       -0.8568034827    0.5946107086    0.7029865700
O        0.3282462997   -0.9985999640    0.3556470561
H        1.1071360904   -0.9316587934    0.9213806572
Br       1.3210540778    1.5806252183   -0.1596583155
6    

H       -0.6694547634    0.1733984817   -0.9762542174
C       -0.1113872168    0.2352533965   -0.0358973131
H       -0.8097563768    0.5616823294    0.7420263376
O        0.3774350281   -0.9984456838    0.2882830578
H        1.0308205092   -0.9410299855    0.9976488602
Br       1.3169336847    1.6075746076   -0.1952333407
6    

H       -0.6823042722    0.1782756543   -0.9609318242
C       -0.0951204216    0.2348364147   -0.0381330478
H       -0.7667217647    0.5339900481    0.7735477240
O        0.4350534840   -0.9885876171    0.2371669014
H        0.9413891649   -0.9733144171    1.0604121375
Br       1.3051297936    1.6446851914   -0.2392665551
6    

H       -0.6841989902    0.1718361457   -0.9449837494
C       -0.0759810870    0.2376205688   -0.0365323941
H       -0.7308436364    0.5133587741    0.7967703075
O        0.4992795391   -0.9702849559    0.2051087478
H        0.8434556474   -1.0239495674    1.1061796402
Br       1.2858670524    1.6876943998   -0.2876829556
6    

H       -0.6765289354    0.1573764066   -0.9297110089
C       -0.0541035143    0.2444418254   -0.0327484379
H       -0.6995018543    0.5034911595    0.8131370754
O        0.5686652282   -0.9449394665    0.1926044476
H        0.7418319019   -1.0861820341    1.1311410242
Br       1.2612784149    1.7286160395   -0.3363304650
6    

H       -0.6623967055    0.1347606601   -0.9157706764
C       -0.0317514077    0.2540993244   -0.0283176442
H       -0.6727991903    0.5043903940    0.8234432458
O        0.6415120808   -0.9122691955    0.2000685532
H        0.6407428297   -1.1527422561    1.1327858300
Br       1.2338911660    1.7630614695   -0.3804350573
6    

H       -0.6458983965    0.1061317616   -0.9009126542
C       -0.0106182736    0.2672342124   -0.0234255766
H       -0.6501841853    0.5179127349    0.8293114562
O        0.7145065452   -0.8715399421    0.2273489730
H        0.5460383080   -1.2178260418    1.1088566386
Br       1.2066279175    1.7868277891   -0.4178072392
6    

H       -0.6318759140    0.0715437629   -0.8801762843
C        0.0070418498    0.2813309860   -0.0157236117
H       -0.6332734006    0.5413964004    0.8336470704
O        0.7794815098   -0.8248474683    0.2724918507
H        0.4640668712   -1.2806980957    1.0581460728
Br       1.1837256052    1.7998394336   -0.4510328176
6    

H       -0.6195814903    0.0344185269   -0.8526211671
C        0.0202152108    0.2955345926   -0.0029394281
H       -0.6254324957    0.5723285124    0.8371045322
O        0.8292244082   -0.7759765323    0.3327646787
H        0.4010101576   -1.3405730816    0.9833066522
Br       1.1676640157    1.8038219900   -0.4828482425
6    

H       -0.6065297253   -0.0015632381   -0.8213107313
C        0.0279370110    0.3091127819    0.0155685208
H       -0.6284614625    0.6086047890    0.8394032080
O        0.8598532687   -0.7292997456    0.4051711012
H        0.3628959842   -1.3956224897    0.8906087906
Br       1.1580037709    1.8004475411   -0.5146712852
6    

H       -0.5933185428   -0.0338725506   -0.7894743207
C        0.0300331009    0.3205165246    0.0382941858
H       -0.6392975892    0.6492557175    0.8403456716
O        0.8687437554   -0.6898228926    0.4854328259
H        0.3520975846   -1.4443088187    0.7870949006
Br       1.1552147913    1.7905936092   -0.5461351047
