22   

C        1.8651714551   -1.0662847306   -0.1744118925
C        1.1521241379   -0.0844613552    0.5133833068
C        2.5625341870   -2.0386551815    0.5420878908
C        2.6651055795   -1.8156304834    6.3045004255
C        1.1394482465   -0.0730449816    1.9132880421
C        2.5493398025   -2.0261141220    1.9417956107
C        2.7295918291   -1.7829406733    4.9070282501
C        1.6620209999   -1.1155779286    6.9756757579
C        0.7902929323   -0.3573376619    4.8547188376
C        1.8458659547   -1.0347861920    2.6605102600
C        1.8023724922   -1.0437055815    4.1483916348
C        0.7192713694   -0.3852499739    6.2522192082
Cl      -0.5456898791    0.4778030487    7.0836528040
H        1.8743672714   -1.0755286579   -1.2607158803
H        0.6072442959    0.6756260208   -0.0392768022
H        3.1110224506   -2.8121148894    0.0120731119
H        3.3989392240   -2.3844262276    6.8686312091
H        0.5860192237    0.7244003318    2.3947736569
H        3.0823546968   -2.8221913427    2.4476155718
H        3.5390744936   -2.3269256013    4.4348688123
H        1.6080979475   -1.1385368571    8.0600643195
H        0.0163454993    0.1981360820    4.3400409473
22   

C        1.8817801410   -1.0657569671   -0.1571698045
C        1.2826832833   -0.0050817861    0.5261908787
C        2.4482523405   -2.1209187323    0.5616325250
C        2.7316294482   -1.6803847472    6.3069816738
C        1.2513589074    0.0003645067    1.9257567691
C        2.4167719258   -2.1137949910    1.9612123023
C        2.7884021354   -1.6678720082    4.9088814893
C        1.6556433211   -1.0823377216    6.9680545197
C        0.6981924994   -0.4636853854    4.8376816720
C        1.8215456537   -1.0507702391    2.6664203553
C        1.7750222552   -1.0547873246    4.1503950299
C        0.6342759124   -0.4724396015    6.2357825910
Cl      -0.7135142192    0.2653942224    7.0571503865
H        1.9054650474   -1.0707488578   -1.2432777837
H        0.8428504468    0.8185009671   -0.0290384386
H        2.9088691445   -2.9510203675    0.0336901375
H        3.5257703224   -2.1521764261    6.8788211398
H        0.7943357991    0.8455472569    2.4301344870
H        2.8442794806   -2.9573568500    2.4931133835
H        3.6424405392   -2.1237193491    4.4185269812
H        1.6071393777   -1.0899073482    8.0529098693
H       -0.1187301992   -0.0042074886    4.2921321481
22   

C        1.8898786940   -1.0595850429   -0.1503296655
C        1.4065955740    0.0546028126    0.5422228996
C        2.3240366746   -2.1843054836    0.5576647297
C        2.7961408170   -1.5636303452    6.2941973507
C        1.3560480750    0.0424516740    1.9411845361
C        2.2732150836   -2.1946347653    1.9567492604
C        2.8332146591   -1.5736498270    4.8954165028
C        1.6701054256   -1.0675710534    6.9589687242
C        0.6255687955   -0.5930549629    4.8318291805
C        1.7841173881   -1.0842979898    2.6639067469
C        1.7452959146   -1.0927938592    4.1473274417
C        0.5808553171   -0.5794876738    6.2307102452
Cl      -0.8217120633    0.0396612757    7.0581593698
H        1.9291672516   -1.0508024220   -1.2359587462
H        1.0731493712    0.9317755599   -0.0049337700
H        2.6993595328   -3.0515420141    0.0219610881
H        3.6428838086   -1.9372009737    6.8631488948
H        0.9913714285    0.9188910552    2.4684328731
H        2.6052012475   -3.0769055159    2.4955442167
H        3.7166659495   -1.9472537853    4.3864070572
H        1.6367101319   -1.0572246385    8.0443691315
H       -0.2281447616   -0.2201394664    4.2751709657
22   

C        1.8856306675   -1.0595662383   -0.1460354073
C        1.5406202210    0.1011659865    0.5541221374
C        2.1699599641   -2.2371666024    0.5534052733
C        2.8297553335   -1.4284363715    6.2875025772
C        1.4770951358    0.0822081567    1.9524893762
C        2.1059279675   -2.2540082274    1.9519709148
C        2.8579240961   -1.4524009743    4.8886683277
C        1.6590069787   -1.0521715204    6.9551319639
C        0.5530483106   -0.7233027261    4.8310975539
C        1.7495135613   -1.0986058406    2.6620860418
C        1.7150827967   -1.1100584424    4.1483505031
C        0.5167471126   -0.6962045103    6.2301051031
Cl      -0.9382196326   -0.2202042640    7.0617002791
H        1.9356217967   -1.0455939933   -1.2311694058
H        1.3253148802    1.0185207666    0.0136651107
H        2.4411830881   -3.1388288817    0.0117514958
H        3.7169001400   -1.6974892530    6.8539085994
H        1.2198783510    0.9880740261    2.4936767731
H        2.3277883320   -3.1698814060    2.4918039015
H        3.7698710287   -1.7324030083    4.3693848278
H        1.6322424397   -1.0308387206    8.0405540362
H       -0.3335704494   -0.4461391314    4.2694861131
22   

C        1.8867564851   -1.0679414769   -0.1450570752
C        1.7113596736    0.1298649334    0.5563510037
C        2.0048915306   -2.2746482017    0.5532626665
C        2.8664807119   -1.2688365404    6.2912793079
C        1.6518194828    0.1191497109    1.9550143484
C        1.9449372681   -2.2828258131    1.9521271806
C        2.9005042663   -1.2904607791    4.8925173744
C        1.6552511777   -1.0447462078    6.9557847002
C        0.5208622750   -0.8629302716    4.8288758102
C        1.7601612421   -1.0886231026    2.6611787249
C        1.7249479228   -1.0963011851    4.1517417739
C        0.4779944241   -0.8392627727    6.2278244642
Cl      -1.0279266992   -0.5533240870    7.0557396183
H        1.9335123864   -1.0606899054   -1.2304004302
H        1.6236306228    1.0685301597    0.0167269937
H        2.1441384980   -3.2053481491    0.0107115785
H        3.7792990176   -1.4228393317    6.8598569250
H        1.5225340206    1.0494878622    2.5004578709
H        2.0391906313   -3.2192104938    2.4942939774
H        3.8395067024   -1.4561739963    4.3722372450
H        1.6234026674   -1.0260715755    8.0411181025
H       -0.3905150904   -0.7007499253    4.2618031625
22   

C        1.8770477088   -1.0790290755   -0.1465643535
C        1.9016238606    0.1358288338    0.5471119665
C        1.8125644847   -2.2849798521    0.5601396354
C        2.8893632759   -1.0907720084    6.3028692988
C        1.8618624204    0.1430628137    1.9465281020
C        1.7729044227   -2.2749138748    1.9597074024
C        2.9384748042   -1.0969406571    4.9043882578
C        1.6527463810   -1.0437467742    6.9567086907
C        0.5233634626   -1.0093480426    4.8197192147
C        1.7974820640   -1.0625048667    2.6608618016
C        1.7546367197   -1.0562277842    4.1535174278
C        0.4647956172   -1.0028481594    6.2182964913
Cl      -1.0740682003   -0.9443433728    7.0328367767
H        1.9075193293   -1.0859041918   -1.2324888071
H        1.9510866900    1.0734275081    0.0008188405
H        1.7928031985   -3.2292925063    0.0236256552
H        3.8095818840   -1.1224338718    6.8794395349
H        1.8802449183    1.0852815354    2.4865289594
H        1.7222295298   -3.2105621756    2.5090049804
H        3.8954001032   -1.1333566182    4.3916878036
H        1.6087909967   -1.0387504871    8.0417682251
H       -0.3963961473   -0.9776937461    4.2438936329
22   

C        1.8730896373   -1.0909461513   -0.1472177682
C        2.0888860530    0.1088053969    0.5392728876
C        1.6242646655   -2.2681100934    0.5668002098
C        2.8686142329   -0.9153440411    6.3128409036
C        2.0583118205    0.1291716269    1.9387864214
C        1.5942724893   -2.2449117057    1.9664195640
C        2.9311753123   -0.9102793640    4.9149019638
C        1.6316837142   -1.0435398082    6.9548061020
C        0.5290428037   -1.1630172594    4.8070557595
C        1.8187629009   -1.0492129978    2.6618444988
C        1.7598458739   -1.0256666352    4.1515139173
C        0.4571054311   -1.1694711383    6.2049737600
Cl      -1.0817490754   -1.3355933662    7.0045568975
H        1.8957548695   -1.1079093192   -1.2332227618
H        2.2773509456    1.0251287434   -0.0128106545
H        1.4527539136   -3.2001500949    0.0358955833
H        3.7790711401   -0.8226205731    6.8982530031
H        2.2185450917    1.0616544182    2.4720995763
H        1.3981140463   -3.1585020438    2.5201809111
H        3.8897424639   -0.8183530019    4.4123647789
H        1.5774009691   -1.0488224349    8.0393962891
H       -0.3808415934   -1.2630975772    4.2234349894
22   

C        1.8692388885   -1.0925042600   -0.1503942792
C        2.2485643793    0.0630257121    0.5404278919
C        1.4550330358   -2.2245054416    0.5592470825
C        2.8383146364   -0.7564203553    6.3065274576
C        2.2164639975    0.0840298570    1.9398600882
C        1.4235466525   -2.2012480088    1.9587929278
C        2.8980574286   -0.7532402354    4.9084903479
C        1.6288202065   -1.0357025809    6.9521716301
C        0.5474342159   -1.3094739715    4.8078419417
C        1.8127546079   -1.0512419071    2.6610595672
C        1.7496278639   -1.0200745335    4.1461833151
C        0.4790903507   -1.3151374602    6.2058893315
Cl      -1.0251594235   -1.6695799607    7.0100445767
H        1.8931332115   -1.1097199136   -1.2363695084
H        2.5645542098    0.9455303788   -0.0084709626
H        1.1567676338   -3.1219609121    0.0248367450
H        3.7306535854   -0.5461340674    6.8894014020
H        2.5011948337    0.9860501871    2.4734695733
H        1.1011520567   -3.0825010074    2.5057042777
H        3.8388800881   -0.5476606626    4.4062038883
H        1.5771707212   -1.0403147590    8.0368939348
H       -0.3457562081   -1.5262917205    4.2303206403
22   

C        1.8712454026   -1.0859371729   -0.1511974377
C        2.3879037785    0.0066745249    0.5515114265
C        1.3144721221   -2.1617764992    0.5468564690
C        2.8062853282   -0.6219537259    6.3005988780
C        2.3490331427    0.0215750458    1.9508241655
C        1.2759199098   -2.1450825543    1.9462588658
C        2.8568930247   -0.6267729449    4.9022175546
C        1.6409201375   -1.0287983061    6.9581636838
C        0.5841074571   -1.4442664822    4.8247249186
C        1.7967097633   -1.0559966020    2.6642813309
C        1.7438329276   -1.0338390520    4.1472658351
C        0.5256509792   -1.4423077451    6.2231512711
Cl      -0.9261924648   -1.9496662931    7.0416710987
H        1.9009441638   -1.0983398401   -1.2370965041
H        2.8165459759    0.8461661344    0.0116297898
H        0.9128178014   -3.0122605326    0.0034003415
H        3.6726517568   -0.3059745085    6.8748763966
H        2.7413153892    0.8809152318    2.4861569056
H        0.8488356587   -2.9907796338    2.4768400909
H        3.7693906576   -0.3223494667    4.3983577080
H        1.5967414423   -1.0271251267    8.0432246435
H       -0.2898471424   -1.7580922952    4.2630711840
22   

C        1.9240829474   -1.0572824823   -0.1568448283
C        1.4077669758   -2.1642916667    0.5207312186
C        2.3713373939    0.0509074270    0.5663038423
C        0.6246915879   -1.7485774404    6.2200848059
C        1.3402876313   -2.1631384872    1.9190909397
C        2.3039354604    0.0506498307    1.9645717990
C        0.6905682263   -1.7505492517    4.8223177582
C        1.5783504463   -1.0486043387    6.9636603438
C        2.6588237482   -0.3577731369    4.9160064072
C        1.7917720734   -1.0585517889    2.6638525530
C        1.7058053476   -1.0507126246    4.1459949538
C        2.5997819406   -0.3512279041    6.3143301788
Cl       3.7960686920    0.5144055776    7.2390712759
H        1.9762582864   -1.0575129794   -1.2419691374
H        1.0611275978   -3.0288085687   -0.0382059400
H        2.7672275973    0.9164976294    0.0428139460
H       -0.1699619790   -2.2884735912    6.7273201540
H        0.9504324032   -3.0433095913    2.4196737766
H        2.6375058226    0.9340180270    2.4993672808
H       -0.0714728170   -2.2871990023    4.2665710241
H        1.5313401724   -1.0443808143    8.0486010386
H        3.4747351595    0.1720814092    4.4367157140
22   

C        1.9153782183   -1.0539810101   -0.1661978372
C        1.2708900181   -2.0913789598    0.5077655502
C        2.4946786161   -0.0154339645    0.5626236564
C        0.7192752042   -1.8566423342    6.2391828401
C        1.2098223391   -2.0926732371    1.9065387034
C        2.4332843684   -0.0176826000    1.9610185877
C        0.7809404749   -1.8549160517    4.8411146162
C        1.5899198561   -1.0563094915    6.9797746892
C        2.5828578598   -0.2602151486    4.9273371301
C        1.8001875817   -1.0645926496    2.6658985752
C        1.7043515320   -1.0469758786    4.1511526046
C        2.5271074191   -0.2565826576    6.3257273677
Cl       3.6286660493    0.7321167886    7.2451019719
H        1.9624570677   -1.0528133405   -1.2515597661
H        0.8175529498   -2.9024055619   -0.0550126954
H        2.9881409668    0.8011368691    0.0432352933
H       -0.0097898037   -2.4797763139    6.7495313381
H        0.7136786540   -2.9329233107    2.3769951760
H        2.8712299311    0.8287309114    2.4768144833
H        0.0697325140   -2.4795594175    4.3140332607
H        1.5452572608   -1.0548902258    8.0648260061
H        3.3485829972    0.3525187055    4.4679821229
22   

C        1.9066913157   -1.0512433806   -0.1814875130
C        1.1046502853   -1.9741643378    0.4866265090
C        2.6490911521   -0.1307528361    0.5549119076
C        0.8516727937   -1.9949088520    6.2463883041
C        1.0447041234   -1.9772421068    1.8855660477
C        2.5889520891   -0.1340597541    1.9532762111
C        0.9131400034   -1.9899804494    4.8482249835
C        1.5934304221   -1.0745774896    6.9849145845
C        2.4552861584   -0.1477269853    4.9289770216
C        1.7831880809   -1.0595884639    2.6581512216
C        1.7155819753   -1.0676806849    4.1487511403
C        2.3985570315   -0.1469604526    6.3273483043
Cl       3.3294101820    1.0075460089    7.2424800698
H        1.9528273390   -1.0493409969   -1.2668930347
H        0.5232283523   -2.6946609012   -0.0815954975
H        3.2768728528    0.5920503326    0.0415465314
H        0.2237877100   -2.7183093835    6.7590148210
H        0.3992684791   -2.7247012789    2.3263737339
H        3.1928580789    0.6098601900    2.4556235722
H        0.3093238103   -2.7342636466    4.3468613313
H        1.5479710381   -1.0756873294    8.0699380173
H        3.0998777813    0.5991765573    4.4867136166
22   

C        1.9092353722   -1.0316883755   -0.1735064257
C        0.9648377125   -1.8225082270    0.4811075277
C        2.7936884808   -0.2550717260    0.5748188137
C        0.9956536308   -2.1232475305    6.2350571539
C        0.9020282450   -1.8333067174    1.8797617453
C        2.7299943112   -0.2663165267    1.9730730314
C        1.0591569178   -2.1112358131    4.8371189776
C        1.5943082209   -1.1009326254    6.9723312894
C        2.3126200191   -0.0568301296    4.9165763020
C        1.7727584943   -1.0465709340    2.6575503920
C        1.7304121220   -1.0857127287    4.1448657394
C        2.2532537528   -0.0620975804    6.3148116260
Cl       2.9879768069    1.2265672330    7.2289897517
H        1.9582106112   -1.0236545658   -1.2587560431
H        0.2739663960   -2.4296565544   -0.0968786778
H        3.5388666755    0.3541576197    0.0712274725
H        0.4820196396   -2.9314908024    6.7480981610
H        0.1364965107   -2.4510613151    2.3334551344
H        3.4606950558    0.3301242737    2.5065598757
H        0.5947483606   -2.9385556022    4.3139887336
H        1.5470935658   -1.1066233245    8.0572609229
H        2.8070141572    0.7874108257    4.4522096465
22   

C        1.9068619298   -1.0299595664   -0.1592852862
C        0.8726157623   -1.7061112703    0.4920876759
C        2.8819003428   -0.3679642109    0.5904565792
C        1.1231979038   -2.1855554574    6.2345289592
C        0.8132419300   -1.7187954840    1.8907538739
C        2.8211160473   -0.3808361859    1.9889718725
C        1.1819078091   -2.1745217916    4.8364758645
C        1.6080077619   -1.0962055629    6.9629951781
C        2.2057890748    0.0096869703    4.8997135571
C        1.7828766061   -1.0524508686    2.6617666373
C        1.7291517812   -1.0788016672    4.1451978944
C        2.1503468553    0.0061527049    6.2981821053
Cl       2.7466887401    1.3701392164    7.2034447969
H        1.9536290925   -1.0201782703   -1.2446120609
H        0.1112958665   -2.2201206334   -0.0876942727
H        3.6916329165    0.1532796965    0.0878095827
H        0.7037819746   -3.0425950463    6.7539713141
H       -0.0107013953   -2.2375335041    2.3696061090
H        3.6044974482    0.1227034450    2.5460851606
H        0.8148522654   -3.0395239253    4.2937095864
H        1.5643666674   -1.1002592655    8.0480757608
H        2.6102088776    0.8869474621    4.4067255212
22   

C        1.9148204572   -1.0230703532   -0.1566130865
C        0.8042439613   -1.5817436043    0.4829427000
C        2.9588619646   -0.4874272384    0.6034983211
C        1.2350226810   -2.2511962357    6.2267895920
C        0.7396445688   -1.6059214805    1.8811715718
C        2.8924742980   -0.5119484363    2.0017432504
C        1.2895635568   -2.2390873059    4.8286056275
C        1.6049593027   -1.1124272156    6.9494979249
C        2.0828146567    0.0429241216    4.8811931665
C        1.7849248260   -1.0753860717    2.6565474456
C        1.7099504169   -1.0893605757    4.1386937575
C        2.0310545194    0.0387048128    6.2798849801
Cl       2.4924662070    1.4574656768    7.1795786999
H        1.9657834231   -1.0038269986   -1.2416222989
H       -0.0106738593   -1.9941266503   -0.1051070474
H        3.8232111586   -0.0532277742    0.1091659358
H        0.9091365956   -3.1455341623    6.7504190076
H       -0.1333752793   -2.0304850393    2.3674987156
H        3.7139461611   -0.1006420666    2.5806488767
H        1.0136372220   -3.1311229977    4.2742259683
H        1.5646582540   -1.1168894150    8.0347025444
H        2.4060142153    0.9442649811    4.3704448127
22   

C        1.9206755232   -1.0212879220   -0.1550735845
C        0.7461829205   -1.4429878912    0.4766893610
C        3.0222083337   -0.6279276175    0.6120582982
C        1.3696511029   -2.2829562443    6.2361726688
C        0.6758037405   -1.4740365758    1.8745322644
C        2.9496042232   -0.6596101353    2.0099073452
C        1.4162901045   -2.2798422720    4.8376390444
C        1.6118978213   -1.1009321704    6.9445937826
C        1.9481571584    0.0784352105    4.8616796683
C        1.7803512185   -1.0916433592    2.6528279085
C        1.6962753894   -1.0956750306    4.1372228300
C        1.9038997171    0.0839396039    6.2606987014
Cl       2.2122380251    1.5540433233    7.1431866978
H        1.9761863773   -0.9961690118   -1.2397377661
H       -0.1127912026   -1.7429211953   -0.1167392927
H        3.9342624121   -0.2968498299    0.1236655300
H        1.1494793801   -3.2026709022    6.7708515419
H       -0.2409476692   -1.7915928349    2.3625659719
H        3.8073149705   -0.3531912936    2.6015975784
H        1.2395155266   -3.1991789117    4.2869370257
H        1.5777933184   -1.0980350129    8.0300149926
H        2.1746614746    0.9988262532    4.3326183354
22   

C        1.9192746635   -1.0249893750   -0.1524154864
C        0.6987519547   -1.2834678221    0.4806397104
C        3.0676760150   -0.7967029906    0.6134250394
C        1.5285098383   -2.3116364033    6.2464965071
C        0.6289114095   -1.3160455670    1.8785134933
C        2.9950108580   -0.8298942266    2.0112762411
C        1.5732877159   -2.3113380562    4.8478669039
C        1.6196712610   -1.1035896437    6.9471098180
C        1.8016899103    0.0956283579    4.8562537937
C        1.7783251658   -1.0974185842    2.6530004908
C        1.7017855179   -1.1057792903    4.1420287539
C        1.7581911694    0.1047135229    6.2553319100
Cl       1.8781998974    1.6076602795    7.1281150489
H        1.9746150887   -0.9986399492   -1.2370589802
H       -0.1953708554   -1.4561176513   -0.1115594061
H        4.0157221723   -0.5921472488    0.1242013853
H        1.4258772458   -3.2483760530    6.7870726066
H       -0.3197916563   -1.5094502395    2.3706304042
H        3.8862535450   -0.6496633009    2.6053978063
H        1.5102311755   -3.2472217989    4.3001530069
H        1.5862146010   -1.0980675424    8.0325409040
H        1.9116154966    1.0317896337    4.3177026462
22   

C        1.9066783350   -1.0356907301   -0.1520775496
C        0.6687636568   -1.1029635173    0.4965345634
C        3.0863557735   -0.9889245363    0.5989535693
C        1.7064691203   -2.3235024548    6.2452076436
C        0.6122555796   -1.1235409782    1.8952476467
C        3.0269455888   -1.0096378962    1.9976995186
C        1.7616368403   -2.3127821488    4.8469766542
C        1.6219373135   -1.1165077987    6.9487182691
C        1.6479303617    0.1025513669    4.8614923089
C        1.7912002247   -1.0771869095    2.6538733323
C        1.7327031871   -1.0985959668    4.1458371986
C        1.5923011392    0.1013517866    6.2602016685
Cl       1.4870722118    1.6033674391    7.1364859527
H        1.9518029714   -1.0193156082   -1.2373898019
H       -0.2485465318   -1.1387931093   -0.0841815282
H        4.0485167214   -0.9360981438    0.0975348229
H        1.7292470991   -3.2671151296    6.7830871269
H       -0.3479404861   -1.1751178858    2.4002994353
H        3.9421799892   -0.9727440323    2.5814124754
H        1.8273128518   -3.2465225235    4.2958793529
H        1.5788595866   -1.1189560758    8.0338217075
H        1.6251423158    1.0456658708    4.3243207492
22   

C        1.8952478537   -1.0343478487   -0.1523747981
C        0.6718861104   -0.9045553439    0.5139936957
C        3.0785282667   -1.1720846156    0.5815570132
C        1.8851280630   -2.3109314767    6.2348324322
C        0.6335979653   -0.9101546355    1.9134280494
C        3.0377593815   -1.1773214290    1.9811268420
C        1.9557371563   -2.2794311863    4.8376350007
C        1.6233227361   -1.1344583061    6.9463224380
C        1.5016471399    0.0959683516    4.8690652321
C        1.8176335017   -1.0384836922    2.6556548496
C        1.7730643706   -1.0726723899    4.1455982304
C        1.4288957492    0.0732444142    6.2668018067
Cl       1.0960368355    1.5357783708    7.1529161952
H        1.9260071241   -1.0305433437   -1.2383066104
H       -0.2486012554   -0.8017414546   -0.0535581558
H        4.0290101418   -1.2759977187    0.0660567948
H        2.0304247714   -3.2476028076    6.7656547671
H       -0.3165045413   -0.8163133293    2.4313592811
H        3.9559632458   -1.2867948788    2.5508289691
H        2.1508824149   -3.1913313405    4.2806482544
H        1.5665774493   -1.1534853125    8.0306333603
H        1.3481552374    1.0310532376    4.3394077186
22   

C        1.8883683137   -1.0377391281   -0.1529690163
C        0.6997787132   -0.7362385835    0.5200119972
C        3.0439023929   -1.3411978428    0.5746730283
C        2.0416309603   -2.2660521968    6.2410757206
C        0.6688184309   -0.7352966724    1.9196055650
C        3.0108183237   -1.3397757817    1.9744151205
C        2.1151954163   -2.2309898005    4.8441296267
C        1.6283276237   -1.1304238350    6.9464027498
C        1.3615091740    0.0666165837    4.8634344076
C        1.8270618177   -1.0272932529    2.6580241702
C        1.7857186150   -1.0595287318    4.1437948490
C        1.2847163338    0.0396339397    6.2608083217
Cl       0.7626356778    1.4507782619    7.1389620153
H        1.9131348825   -1.0391754220   -1.2390606783
H       -0.2004694892   -0.5062222535   -0.0426925010
H        3.9671596287   -1.5787218037    0.0539786097
H        2.3009777227   -3.1750085523    6.7765846523
H       -0.2584684146   -0.5118094494    2.4390572701
H        3.9096767260   -1.5763437816    2.5361575532
H        2.4240267247   -3.1157466436    4.2950097114
H        1.5684483957   -1.1527593784    8.0304820155
H        1.0938970227    0.9747440655    4.3323900288
22   

C        1.8896000576   -1.0424600775   -0.1568793355
C        0.7456457153   -0.6023434695    0.5155988754
C        2.9933999227   -1.4961938181    0.5714626944
C        2.1749158068   -2.2316395122    6.2549900308
C        0.7071759389   -0.6144591702    1.9149359956
C        2.9530676189   -1.5080868310    1.9708864613
C        2.2346862575   -2.2058628176    4.8571913082
C        1.6425994791   -1.1415940853    6.9510183913
C        1.2310652747   -0.0075184610    4.8568696140
C        1.8123664720   -1.0628142956    2.6584295290
C        1.7677294487   -1.0902956136    4.1416390383
C        1.1677423709   -0.0257444342    6.2549710794
Cl       0.5035500068    1.3319946005    7.1213511119
H        1.9201284143   -1.0330835477   -1.2427857996
H       -0.1153376011   -0.2538036593   -0.0476318623
H        3.8837065488   -1.8380124037    0.0514075128
H        2.5380882765   -3.0992081437    6.7987389679
H       -0.1918233967   -0.2828353263    2.4257703966
H        3.8194840722   -1.8546363397    2.5259908925
H        2.6363446920   -3.0617343371    4.3230448221
H        1.5936551339   -1.1570006248    8.0357678311
H        0.8680565062    0.8664569724    4.3256877004
22   

C        1.8911815348   -1.0397855898   -0.1596677106
C        0.8004640447   -0.4813624490    0.5107417292
C        2.9272383262   -1.6258720466    0.5711217055
C        2.2897276672   -2.1594866887    6.2805110657
C        0.7459671063   -0.5101844849    1.9093087604
C        2.8711040277   -1.6545776169    1.9696556401
C        2.3269167383   -2.1565655716    4.8817038118
C        1.6563036673   -1.1189162398    6.9648840445
C        1.1016465595   -0.0776811189    4.8563040401
C        1.7773603220   -1.1009347000    2.6615884441
C        1.7289932977   -1.1180829508    4.1453811169
C        1.0605877617   -0.0734728316    6.2552886908
Cl       0.2786803114    1.2304060473    7.1062334374
H        1.9342102045   -1.0167862393   -1.2449500552
H       -0.0083832717   -0.0265058563   -0.0539646110
H        3.7804821960   -2.0549797527    0.0536299314
H        2.7504510429   -2.9724842254    6.8346019567
H       -0.1215549274   -0.0838813930    2.4025318977
H        3.7005169289   -2.0959928350    2.5123422616
H        2.8096909861   -2.9841412527    4.3721199156
H        1.6252341696   -1.1167478754    8.0504032224
H        0.6520859996    0.7571452504    4.3299372879
22   

C        1.8982462087   -1.0328862849   -0.1731429176
C        0.8840105618   -0.3550771784    0.5031539170
C        2.8497863319   -1.7487026080    0.5530593697
C        2.4101043818   -2.0730261518    6.2947561244
C        0.8195491796   -0.3959394278    1.9010808049
C        2.7842035235   -1.7890496209    1.9507659750
C        2.4309130914   -2.0844159633    4.8956159343
C        1.6751522402   -1.1023342660    6.9761749860
C        0.9889210148   -0.1568507090    4.8623060353
C        1.7593974203   -1.1220681199    2.6572113154
C        1.7116182910   -1.1353078037    4.1449256150
C        0.9632720648   -0.1389719011    6.2615388753
Cl       0.0567605729    1.0858822382    7.1066652271
H        1.9486457121   -1.0005337211   -1.2578730996
H        0.1399283177    0.2039444853   -0.0571106735
H        3.6482004501   -2.2698911839    0.0325862094
H        2.9645028643   -2.8229396920    6.8520315704
H       -0.0010466428    0.1318330418    2.3723660934
H        3.5659008452   -2.3341165350    2.4660805825
H        3.0004519889   -2.8705887521    4.4142905239
H        1.6565618132   -1.0896352231    8.0619127408
H        0.4455647910    0.6313746714    4.3564366131
22   

C        1.8784171927   -1.0458569635   -0.1862066324
C        1.0060271949   -0.2077082429    0.5047600915
C        2.7142781443   -1.9009918022    0.5282931345
C        2.5507678584   -1.9574361869    6.3014593346
C        0.9693463852   -0.2243208145    1.9043124404
C        2.6769274432   -1.9169263743    1.9274394243
C        2.5905390630   -1.9439128906    4.9026564373
C        1.6757431343   -1.1164500459    6.9865284100
C        0.8840314304   -0.2522162689    4.8756588379
C        1.8012636599   -1.0769674580    2.6562394865
C        1.7601218999   -1.0926428854    4.1478339143
C        0.8386674114   -0.2601985050    6.2744908957
Cl      -0.2587672002    0.7949711100    7.1225291507
H        1.9065146331   -1.0326063339   -1.2721484296
H        0.3512008059    0.4618654439   -0.0456729955
H        3.3973493894   -2.5576184913   -0.0030176397
H        3.2037850360   -2.6253842974    6.8561989453
H        0.2653820465    0.4556820468    2.3649123823
H        3.3550120882   -2.6070208913    2.4112649974
H        3.2944073200   -2.6238054816    4.4415912644
H        1.6420116198   -1.1241000099    8.0719522433
H        0.2064463888    0.4373914031    4.3918091011
