22   

C        1.8652762411   -1.0662005752   -0.1744199372
C        1.1521681451   -0.0844294461    0.5133824029
C        2.5626716554   -2.0385473227    0.5420743649
C        2.6653683776   -1.8153136213    6.3045197490
C        1.1394482465   -0.0730449816    1.9132880421
C        2.5494385336   -2.0260399460    1.9417811619
C        2.7295918291   -1.7829406733    4.9070282501
C        1.6626619553   -1.1147764798    6.9757466725
C        0.7908857532   -0.3565381868    4.8548091470
C        1.8458659547   -1.0347861920    2.6605102600
C        1.8023724922   -1.0437055815    4.1483916348
C        0.7201076407   -0.3841664498    6.2523276499
Cl      -0.5443245626    0.4795922383    7.0838342968
H        1.8744991454   -1.0754182462   -1.2607239166
H        0.6072711965    0.6756473964   -0.0392754333
H        3.1112184212   -2.8119630628    0.0120559166
H        3.3991208716   -2.3842382581    6.8686261333
H        0.5859550080    0.7243881942    2.3947077367
H        3.0824986616   -2.8221042055    2.4475689516
H        3.5388404893   -2.3272688374    4.4348703366
H        1.6089160697   -1.1375272231    8.0601484030
H        0.0171079108    0.1992575499    4.3402334299
22   

C        1.8817966610   -1.0657479919   -0.1571750331
C        1.2826898936   -0.0050835252    0.5261898092
C        2.4482829139   -2.1209002923    0.5616246519
C        2.7319550711   -1.6798940007    6.3069988978
C        1.2513589074    0.0003645067    1.9257567691
C        2.4167989683   -2.1137789634    1.9612033373
C        2.7884021354   -1.6678720082    4.9088814893
C        1.6564194140   -1.0811134365    6.9681297994
C        0.6988900029   -0.4625006123    4.8377827885
C        1.8215456537   -1.0507702391    2.6664203553
C        1.7750222552   -1.0547873246    4.1503950299
C        0.6352719255   -0.4708086893    6.2358999297
Cl      -0.7119003857    0.2680709643    7.0573421892
H        1.9054831248   -1.0707356081   -1.2432829987
H        0.8428581937    0.8184995089   -0.0290400959
H        2.9089119739   -2.9509945159    0.0336812865
H        3.5260124910   -2.1518646595    6.8788065198
H        0.7943477360    0.8455921998    2.4300606176
H        2.8443132915   -2.9573488875    2.4930831140
H        3.6421740018   -2.1242069209    4.4185211135
H        1.6081346645   -1.0883570919    8.0529971224
H       -0.1178722529   -0.0026141349    4.2923447589
22   

C        1.8898724449   -1.0595906159   -0.1503321697
C        1.4065921505    0.0545963022    0.5422219343
C        2.3240375456   -2.1843066691    0.5576616977
C        2.7964564975   -1.5630109408    6.2942011014
C        1.3560480750    0.0424516740    1.9411845361
C        2.2732209354   -2.1946324465    1.9567457693
C        2.8332146591   -1.5736498270    4.8954165028
C        1.6708516368   -1.0660382655    6.9590089647
C        0.6262436492   -0.5915948751    4.8318929508
C        1.7841173881   -1.0842979898    2.6639067469
C        1.7452959146   -1.0927938592    4.1473274417
C        0.5818126012   -0.5774599426    6.2307768612
Cl      -0.8201604641    0.0429884689    7.0582603997
H        1.9291570856   -1.0508086349   -1.2359613980
H        1.0731504389    0.9317698795   -0.0049362108
H        2.6993606506   -3.0515430849    0.0219580488
H        3.6431232899   -1.9367957498    6.8631252964
H        0.9913979631    0.9189277128    2.4683866533
H        2.6052069540   -3.0769077439    2.4955321158
H        3.7164074237   -1.9478542699    4.3864015640
H        1.6376674295   -1.0552781095    8.0444117977
H       -0.2273017331   -0.2181961132    4.2753036120
22   

C        1.8856650325   -1.0595570890   -0.1460350430
C        1.5406333551    0.1011682336    0.5541225138
C        2.1700101975   -2.2371527075    0.5534057456
C        2.8299930181   -1.4277764958    6.2874960969
C        1.4770951358    0.0822081567    1.9524893762
C        2.1059666609   -2.2539972160    1.9519705979
C        2.8579240961   -1.4524009743    4.8886683277
C        1.6595666994   -1.0505475014    6.9551381378
C        0.5535618743   -0.7217673704    4.8311195836
C        1.7495135613   -1.0986058406    2.6620860418
C        1.7150827967   -1.1100584424    4.1483505031
C        0.5174677771   -0.6940633840    6.2301199928
Cl      -0.9370499798   -0.2166884767    7.0617128804
H        1.9356647362   -1.0455817257   -1.2311686075
H        1.3253256387    1.0185222384    0.0136650898
H        2.4412541628   -3.1388090462    0.0117525257
H        3.7170822017   -1.6970498143    6.8538844049
H        1.2198801820    0.9880853713    2.4936579758
H        2.3278389523   -3.1698692612    2.4917999992
H        3.7696760343   -1.7330354466    4.3693845842
H        1.6329599207   -1.0287729590    8.0405553027
H       -0.3329144526   -0.4440973525    4.2695339890
22   

C        1.8868304475   -1.0679313554   -0.1450544972
C        1.7113894809    0.1298690868    0.5563523279
C        2.0049898241   -2.2746350485    0.5532659374
C        2.8665779509   -1.2683567310    6.2912742956
C        1.6518194828    0.1191497109    1.9550143484
C        1.9450078660   -2.2828163129    1.9521292656
C        2.9005042663   -1.2904607791    4.8925173744
C        1.6554797750   -1.0435702835    6.9557807479
C        0.5210742449   -0.8618231100    4.8288774923
C        1.7601612421   -1.0886231026    2.6611787249
C        1.7249479228   -1.0963011851    4.1517417739
C        0.4782896685   -0.8377159791    6.2278209075
Cl      -1.0274471557   -0.5507839265    7.0557276603
H        1.9336067352   -1.0606767739   -1.2303969540
H        1.6236517726    1.0685335596    0.0167284087
H        2.1442773237   -3.2053297219    0.0107162112
H        3.7793738046   -1.4225154482    6.8598456678
H        1.5225112051    1.0494871900    2.5004537462
H        2.0392833252   -3.2191991148    2.4942951595
H        3.8394267802   -1.4566294986    4.3722384591
H        1.6236954117   -1.0245742840    8.0411104519
H       -0.3902407635   -0.6992780344    4.2618090750
22   

C        1.8770473650   -1.0790290867   -0.1465643579
C        1.9016237087    0.1358288209    0.5471119598
C        1.8125641284   -2.2849798569    0.5601396407
C        2.8893632486   -1.0907725758    6.3028693013
C        1.8618624204    0.1430628137    1.9465281020
C        1.7729042388   -2.2749138750    1.9597074096
C        2.9384748042   -1.0969406571    4.9043882578
C        1.6527463189   -1.0437482053    6.9567086922
C        0.5233634109   -1.0093494337    4.8197192157
C        1.7974820640   -1.0625048667    2.6608618016
C        1.7546367197   -1.0562277842    4.1535174278
C        0.4647955397   -1.0028500803    6.2182964917
Cl      -1.0740683249   -0.9443465358    7.0328367784
H        1.9075188421   -1.0859042099   -1.2324888167
H        1.9510865497    1.0734274872    0.0008188219
H        1.7928026971   -3.2292925100    0.0236256663
H        3.8095818609   -1.1224342177    6.8794395427
H        1.8802450233    1.0852815350    2.4865289562
H        1.7222293195   -3.2105621712    2.5090049972
H        3.8954001249   -1.1333560537    4.3916878039
H        1.6087909152   -1.0387522949    8.0417682265
H       -0.3963962126   -0.9776956022    4.2438936303
22   

C        1.8730403021   -1.0909291628   -0.1472232596
C        2.0888658513    0.1088137882    0.5392722566
C        1.6242010006   -2.2680917811    0.5667907207
C        2.8686753303   -0.9158220294    6.3128419318
C        2.0583118205    0.1291716269    1.9387864214
C        1.5942277091   -2.2449012398    1.9664103998
C        2.9311753123   -0.9102793640    4.9149019638
C        1.6318236470   -1.0447112775    6.9548168495
C        0.5291705520   -1.1641200968    4.8070714371
C        1.8187629009   -1.0492129978    2.6618444988
C        1.7598458739   -1.0256666352    4.1515139173
C        0.4572837782   -1.1710119233    6.2049896760
Cl      -1.0814614000   -1.3381230967    7.0045772025
H        1.8956918639   -1.1078862729   -1.2332286302
H        2.2773365616    1.0251377654   -0.0128082356
H        1.4526654843   -3.2001253663    0.0358828117
H        3.7791215244   -0.8229433588    6.8982460534
H        2.2185625185    1.0616508706    2.4721002389
H        1.3980605377   -3.1584943184    2.5201642711
H        3.8896964315   -0.8178994674    4.4123603166
H        1.5775809195   -1.0503140763    8.0394074284
H       -0.3806799608   -1.2645623933    4.2234600378
22   

C        1.8692568724   -1.0924825992   -0.1504082281
C        2.2485720168    0.0630401438    0.5404279106
C        1.4550580897   -2.2244915230    0.5592209108
C        2.8385016076   -0.7570914768    6.3065338904
C        2.2164639975    0.0840298570    1.9398600882
C        1.4235646209   -2.2012476509    1.9587664974
C        2.8980574286   -0.7532402354    4.9084903479
C        1.6292546410   -1.0373530906    6.9522091084
C        0.5478280004   -1.3110336620    4.8078934192
C        1.8127546079   -1.0512419071    2.6610595672
C        1.7496278639   -1.0200745335    4.1461833151
C        0.4796453295   -1.3173126062    6.2059454866
Cl      -1.0242618239   -1.6731506009    7.0101255432
H        1.8931567019   -1.1096879922   -1.2363834868
H        2.5645596988    0.9455520822   -0.0084604533
H        1.1568068947   -3.1219461617    0.0248011949
H        3.7308019446   -0.5465823109    6.8893864209
H        2.5011868289    0.9860512135    2.4734715556
H        1.1011904204   -3.0825268749    2.5056468917
H        3.8387323977   -0.5470190723    4.4061909360
H        1.5777288927   -1.0424145664    8.0369352790
H       -0.3452613759   -1.5283635280    4.2304089461
22   

C        1.8713049981   -1.0859111806   -0.1512215223
C        2.3879301038    0.0066953893    0.5515122274
C        1.3145492101   -2.1617684545    0.5468109077
C        2.8065546163   -0.6225991153    6.3006106391
C        2.3490331427    0.0215750458    1.9508241655
C        1.2759729478   -2.1450939040    1.9462126267
C        2.8568930247   -0.6267729449    4.9022175546
C        1.6415529937   -1.0303927021    6.9582217789
C        0.5846765654   -1.4457836778    4.8248038860
C        1.7967097633   -1.0559966020    2.6642813309
C        1.7438329276   -1.0338390520    4.1472658351
C        0.5264600617   -1.4444154884    6.2232404892
Cl      -0.9248832826   -1.9531241186    7.0418098196
H        1.9010218623   -1.0982995716   -1.2371202374
H        2.8165674202    0.8462021741    0.0116503625
H        0.9129313577   -3.0122592670    0.0033383329
H        3.6728593887   -0.3063993382    6.8748597039
H        2.7412916569    0.8809244687    2.4861583200
H        0.8489243519   -2.9908479701    2.4767280856
H        3.7691745998   -0.3217272312    4.3983446990
H        1.5975541226   -1.0291505455    8.0432905984
H       -0.2891426575   -1.7601097372    4.2632220514
22   

C        1.9240798382   -1.0573513515   -0.1568780098
C        1.4077614497   -2.1643321952    0.5207313594
C        2.3713387652    0.0508479768    0.5662429516
C        0.6243229412   -1.7481146205    6.2200664639
C        1.3402876313   -2.1631384872    1.9190909397
C        2.3039409776    0.0506280726    1.9645110049
C        0.6905682263   -1.7505492517    4.8223177582
C        1.5774610359   -1.0474472276    6.9636468507
C        2.6580100516   -0.3566491981    4.9160235959
C        1.7917720734   -1.0585517889    2.6638525530
C        1.7058053476   -1.0507126246    4.1459949538
C        2.5986303760   -0.3496834012    6.3143309102
Cl       3.7941977346    0.5169426061    7.2390736324
H        1.9762516196   -1.0576094665   -1.2420024567
H        1.0611167024   -3.0288637717   -0.0381797306
H        2.7672263951    0.9164258094    0.0427304937
H       -0.1702265871   -2.2881820759    6.7272823960
H        0.9504380213   -3.0433135503    2.4196678695
H        2.6375043359    0.9340539331    2.4992071136
H       -0.0711614402   -2.2876631345    4.2665966934
H        1.5302029285   -1.0429165892    8.0485755166
H        3.4737088143    0.1736009948    4.4368166223
22   

C        1.9154922193   -1.0541114885   -0.1662211066
C        1.2709284071   -2.0914396024    0.5077673804
C        2.4948480891   -0.0155871749    0.5625793243
C        0.7189804626   -1.8563476274    6.2391699449
C        1.2098223391   -2.0926732371    1.9065387034
C        2.4334181696   -0.0177787150    1.9609727979
C        0.7809404749   -1.8549160517    4.8411146162
C        1.5891974876   -1.0555614474    6.9797671041
C        2.5821842993   -0.2594642407    4.9273543846
C        1.8001875817   -1.0645926496    2.6658985752
C        1.7043515320   -1.0469758786    4.1511526046
C        2.5261613890   -0.2555682040    6.3257332050
Cl       3.6271197642    0.7337932276    7.2451157437
H        1.9625969882   -1.0529854171   -1.2515819349
H        0.8175613426   -2.9024638876   -0.0549900320
H        2.9883887571    0.8009261911    0.0431748531
H       -0.0099898409   -2.4796041297    6.7495041278
H        0.7136201352   -2.9328955274    2.3769774359
H        2.8714503616    0.8286376676    2.4766791066
H        0.0699985782   -2.4798823308    4.3140630761
H        1.5443367549   -1.0539489717    8.0648099640
H        3.3477034307    0.3535794809    4.4680809830
22   

C        1.9066906679   -1.0512428143   -0.1814875287
C        1.1046500293   -1.9741641115    0.4866264986
C        2.6490902556   -0.1307520666    0.5549118841
C        0.8516732514   -1.9949092213    6.2463883274
C        1.0447041234   -1.9772421068    1.8855660477
C        2.5889514217   -0.1340591880    1.9532761928
C        0.9131400034   -1.9899804494    4.8482249835
C        1.5934316036   -1.0745784574    6.9849146351
C        2.4552873798   -0.1477280088    4.9289770649
C        1.7831880809   -1.0595884639    2.6581512216
C        1.7155819753   -1.0676806849    4.1487511403
C        2.3985586615   -0.1469618031    6.3273483618
Cl       3.3294128956    1.0075437729    7.2424801397
H        1.9528265245   -1.0493402764   -1.2668930549
H        0.5232282070   -2.6946607586   -0.0815955145
H        3.2768715445    0.5920514565    0.0415465002
H        0.2237879471   -2.7183095685    6.7590148349
H        0.3992687950   -2.7247015416    2.3263737512
H        3.1928570081    0.6098610923    2.4556235378
H        0.3093232506   -2.7342631858    4.3468613206
H        1.5479725207   -1.0756885250    8.0699380827
H        3.0998796330    0.5991750021    4.4867136817
22   

C        1.9090883544   -1.0315993340   -0.1735404536
C        0.9647712577   -1.8224807536    0.4811049637
C        2.7935105683   -0.2549327277    0.5747603339
C        0.9959960038   -2.1234870572    6.2350703852
C        0.9020282450   -1.8333067174    1.8797617453
C        2.7298788789   -0.2662029029    1.9730172060
C        1.0591569178   -2.1112358131    4.8371189776
C        1.5951710968   -1.1015142814    6.9723887505
C        2.3134754959   -0.0573622467    4.9166564449
C        1.7727584943   -1.0465709340    2.6575503920
C        1.7304121220   -1.0857127287    4.1448657394
C        2.2544168870   -0.0628526498    6.3149041167
Cl       2.9898956970    1.2253364605    7.2291460384
H        1.9580180885   -1.0235470956   -1.2587919665
H        0.2739063212   -2.4296574607   -0.0968590488
H        3.5386194634    0.3543632875    0.0711469346
H        0.4822258386   -2.9316589124    6.7480875592
H        0.1365348289   -2.4511148122    2.3334410597
H        3.4605721598    0.3303205100    2.5064109735
H        0.5943825164   -2.9383487582    4.3139926159
H        1.5481817771   -1.1073668643    8.0573272911
H        2.8082060826    0.7867326923    4.4523940748
22   

C        1.9067963566   -1.0299759008   -0.1593213191
C        0.8725767797   -1.7061237450    0.4920862814
C        2.8818447116   -0.3679755691    0.5903930940
C        1.1237178751   -2.1858376321    6.2345482478
C        0.8132419300   -1.7187954840    1.8907538739
C        2.8210968019   -0.3808368737    1.9889099644
C        1.1819078091   -2.1745217916    4.8364758645
C        1.6093004199   -1.0968780302    6.9630742033
C        2.2070345034    0.0090843023    4.8998182225
C        1.7828766061   -1.0524508686    2.6617666373
C        1.7291517812   -1.0788016672    4.1451978944
C        2.1520651808    0.0052908402    6.2983046423
Cl       2.7495075636    1.3687438646    7.2036462748
H        1.9535369307   -1.0202029277   -1.2446492885
H        0.1112419911   -2.2201399152   -0.0876700354
H        3.6915667171    0.1532627787    0.0877231390
H        0.7041164814   -3.0428056842    6.7539588085
H       -0.0107059408   -2.2375289141    2.3695997881
H        3.6045412773    0.1227021658    2.5459269394
H        0.8143405482   -3.0392980420    4.2937002102
H        1.5660048474   -1.1011220963    8.0481678743
H        2.6118758998    0.8862082143    4.4069411010
22   

C        1.9147958329   -1.0231288854   -0.1566407532
C        0.8042232703   -1.5817700464    0.4829415837
C        2.9588562890   -0.4875021642    0.6034490456
C        1.2356701435   -2.2514592921    6.2268123602
C        0.7396445688   -1.6059214805    1.8811715718
C        2.8924878399   -0.5119991862    2.0016950727
C        1.2895635568   -2.2390873059    4.8286056275
C        1.6065574960   -1.1130459690    6.9495846461
C        2.0843342972    0.0423673995    4.8813008387
C        1.7849248260   -1.0753860717    2.6565474456
C        1.7099504169   -1.0893605757    4.1386937575
C        2.0331665488    0.0379138361    6.2800132671
Cl       2.4959310678    1.4561865389    7.1797823444
H        1.9657446236   -1.0039036611   -1.2416509349
H       -0.0107105227   -1.9941492118   -0.1050887061
H        3.8232132302   -0.0533383063    0.1090988192
H        0.9095639624   -3.1457365978    6.7504082119
H       -0.1333847945   -2.0304615416    2.3675008847
H        3.7140194196   -0.1007249098    2.5805354282
H        1.0130135395   -3.1309128591    4.2742003760
H        1.5666888769   -1.1176838359    8.0348044751
H        2.4080326688    0.9435749035    4.3706361327
22   

C        1.9206546417   -1.0213056415   -0.1550890737
C        0.7461686226   -1.4429957556    0.4766885292
C        3.0221956931   -0.6279517504    0.6120305692
C        1.3703236415   -2.2831364984    6.2361946671
C        0.6758037405   -1.4740365758    1.8745322644
C        2.9496050361   -0.6596269889    2.0098801563
C        1.4162901045   -2.2798422720    4.8376390444
C        1.6135508296   -1.1013510890    6.9446706323
C        1.9497186016    0.0780553134    4.8617690711
C        1.7803512185   -1.0916433592    2.6528279085
C        1.6962753894   -1.0956750306    4.1372228300
C        1.9060778319    0.0834047268    6.2608075151
Cl       2.2158137986    1.5531792067    7.1433547283
H        1.9761553396   -0.9961924235   -1.2397538957
H       -0.1128131570   -1.7429274763   -0.1167298081
H        3.9342494497   -0.2968877737    0.1236277819
H        1.1499294545   -3.2028138750    6.7708459406
H       -0.2409488893   -1.7915848489    2.3625682706
H        3.8073433156   -0.3532269017    2.6015395259
H        1.2388731457   -3.1990373071    4.2869078286
H        1.5798965455   -1.0985731397    8.0301061915
H        2.1767346264    0.9983489271    4.3327582360
22   

C        1.9192572947   -1.0249400817   -0.1524193875
C        0.6987433435   -1.2834477234    0.4806396802
C        3.0676573040   -0.7966392200    0.6134177295
C        1.5289883278   -2.3116926832    6.2465118421
C        0.6289114095   -1.3160455670    1.8785134933
C        2.9950002014   -0.8298492155    2.0112686996
C        1.5732877159   -2.3113380562    4.8478669039
C        1.6208434537   -1.1037181382    6.9471560315
C        1.8027929974    0.0955111291    4.8563030136
C        1.7783251658   -1.0974185842    2.6530004908
C        1.7017855179   -1.1057792903    4.1420287539
C        1.7597326366    0.1045501390    6.2553947127
Cl       1.8807309295    1.6073974274    7.1282125671
H        1.9745915045   -0.9985770542   -1.2370628647
H       -0.1953801391   -1.4561035036   -0.1115566713
H        4.0156968714   -0.5920586614    0.1241916579
H        1.4262008457   -3.2484228385    6.7870749338
H       -0.3197879303   -1.5094676386    2.3706304192
H        3.8862457867   -0.6496091889    2.6053832820
H        1.5097775071   -3.2471801683    4.3001344501
H        1.5877073456   -1.0982328015    8.0325971327
H        1.9130803501    1.0316417744    4.3177725922
22   

C        1.9066783070   -1.0356906524   -0.1520775553
C        0.6687636385   -1.1029634834    0.4965345647
C        3.0863557496   -0.9889244455    0.5989535550
C        1.7064697768   -2.3235024308    6.2452076656
C        0.6122555796   -1.1235409782    1.8952476467
C        3.0269455808   -1.0096378376    1.9976995060
C        1.7616368403   -2.3127821488    4.8469766542
C        1.6219389164   -1.1165077299    6.9487183281
C        1.6479318825    0.1025514350    4.8614923648
C        1.7912002247   -1.0771869095    2.6538733323
C        1.7327031871   -1.0985959668    4.1458371986
C        1.5923032562    0.1013518816    6.2602017468
Cl       1.4870757050    1.6033676011    7.1364860787
H        1.9518029312   -1.0193155145   -1.2373898073
H       -0.2485465538   -1.1387930831   -0.0841815215
H        4.0485166890   -0.9360980281    0.0975347959
H        1.7292475383   -3.2671151237    6.7830871271
H       -0.3479404819   -1.1751179020    2.4002994413
H        3.9421799874   -0.9727439640    2.5814124521
H        1.8273122302   -3.2465225469    4.2958793185
H        1.5788616267   -1.1189559853    8.0338217826
H        1.6251443333    1.0456659564    4.3243208155
22   

C        1.8952385520   -1.0344221807   -0.1523759907
C        0.6718822840   -0.9045853324    0.5139934938
C        3.0785162067   -1.1721833096    0.5815552897
C        1.8846498719   -2.3110334510    6.2348060132
C        0.6335979653   -0.9101546355    1.9134280494
C        3.0377506740   -1.1773922416    1.9811253398
C        1.9557371563   -2.2794311863    4.8376350007
C        1.6221503907   -1.1346989158    6.9462664480
C        1.5005431755    0.0957448261    4.8690180700
C        1.8176335017   -1.0384836922    2.6556548496
C        1.7730643706   -1.0726723899    4.1455982304
C        1.4273535671    0.0729332931    6.2667300572
Cl       1.0935043176    1.5352730172    7.1527925158
H        1.9259950331   -1.0306382128   -1.2383079547
H       -0.2486044353   -0.8017627978   -0.0535578473
H        4.0289932561   -1.2761371150    0.0660543849
H        2.0301023361   -3.2476804038    6.7656286754
H       -0.3165040083   -0.8162902844    2.4313562273
H        3.9559529567   -1.2868877361    2.5508254925
H        2.1513366256   -3.1912467451    4.2806692433
H        1.5650848011   -1.1537932267    8.0305593743
H        1.3466873721    1.0307633696    4.3393490340
22   

C        1.8883595367   -1.0377737547   -0.1529704936
C        0.6997766047   -0.7362518146    0.5200117098
C        3.0438890414   -1.3412484127    0.5746707931
C        2.0409743996   -2.2662961046    6.2410350672
C        0.6688184309   -0.7352966724    1.9196055650
C        3.0108077626   -1.3398146390    1.9744127085
C        2.1151954163   -2.2309898005    4.8441296267
C        1.6267107918   -1.1309998655    6.9463259202
C        1.3599799945    0.0660868993    4.8633786492
C        1.8270618177   -1.0272932529    2.6580241702
C        1.7857186150   -1.0595287318    4.1437948490
C        1.2825843502    0.0388914892    6.2607145435
Cl       0.7591351569    1.4495733694    7.1387967825
H        1.9131230672   -1.0392187391   -1.2390622136
H       -0.2004708348   -0.5062330860   -0.0426930564
H        3.9671405439   -1.5787934010    0.0539758116
H        2.3005413765   -3.1751938731    6.7765366607
H       -0.2584790679   -0.5118105168    2.4390380052
H        3.9096652856   -1.5763944142    2.5361510078
H        2.4246564991   -3.1155453972    4.2950407686
H        1.5663920326   -1.1534973121    8.0303774611
H        1.0918625286    0.9740657824    4.3323356282
22   

C        1.8896055968   -1.0424536638   -0.1568813634
C        0.7456521725   -0.6023399431    0.5155983017
C        2.9934011943   -1.4961945325    0.5714596547
C        2.1742998417   -2.2319613467    6.2549575751
C        0.7071759389   -0.6144591702    1.9149359956
C        2.9530654823   -1.5080925559    1.9708826148
C        2.2346862575   -2.2058628176    4.8571913082
C        1.6410739840   -1.1423569836    6.9509704137
C        1.2296108424   -0.0082106327    4.8568507355
C        1.8123664720   -1.0628142956    2.6584295290
C        1.7677294487   -1.0902956136    4.1416390383
C        1.1657235163   -0.0267245837    6.2549222066
Cl       0.5002374409    1.3304058401    7.1212635863
H        1.9201345586   -1.0330731812   -1.2427877776
H       -0.1153318695   -0.2538045401   -0.0476341233
H        3.8837077209   -1.8380133234    0.0514044450
H        2.5376864029   -3.0994503837    6.7986903834
H       -0.1918579063   -0.2828600257    2.4257219601
H        3.8194868060   -1.8546414785    2.5259785957
H        2.6369423119   -3.0614696207    4.3230724038
H        1.5917182864   -1.1579786478    8.0356981128
H        0.8661182810    0.8655884808    4.3257125291
22   

C        1.8911731518   -1.0398019362   -0.1596738882
C        0.8004660534   -0.4813689665    0.5107404361
C        2.9272206623   -1.6259024858    0.5711120071
C        2.2892407903   -2.1598176846    6.2804970424
C        0.7459671063   -0.5101844849    1.9093087604
C        2.8710886436   -1.6546044873    1.9696450657
C        2.3269167383   -2.1565655716    4.8817038118
C        1.6550873043   -1.1197071242    6.9648829316
C        1.1004676976   -0.0783940806    4.8563335424
C        1.7773603220   -1.1009347000    2.6615884441
C        1.7289932977   -1.1180829508    4.1453811169
C        1.0589662569   -0.0744892387    6.2553059017
Cl       0.2760188336    1.2287588129    7.1062617992
H        1.9341976864   -1.0168041399   -1.2449564290
H       -0.0083814350   -0.0265134556   -0.0539666302
H        3.7804573421   -2.0550224731    0.0536185469
H        2.7501431682   -2.9727287011    6.8345659699
H       -0.1215972394   -0.0838906425    2.4024558662
H        3.7005103316   -2.0960255420    2.5123105063
H        2.8101750867   -2.9838697891    4.3721425743
H        1.6236944217   -1.1177615471    8.0503932000
H        0.6504969515    0.7562632960    4.3300570158
22   

C        1.8981635777   -1.0329911820   -0.1731581220
C        0.8839791900   -0.3551212834    0.5031501426
C        2.8496805456   -1.7488401756    0.5530365397
C        2.4097896577   -2.0732922176    6.2947533959
C        0.8195491796   -0.3959394278    1.9010808049
C        2.7841309919   -1.7891482705    1.9507449693
C        2.4309130914   -2.0844159633    4.8956159343
C        1.6743551348   -1.1029843470    6.9761909910
C        0.9881246872   -0.1574533941    4.8623433006
C        1.7593974203   -1.1220681199    2.6572113154
C        1.7116182910   -1.1353078037    4.1449256150
C        0.9621936420   -0.1398210069    6.2615742040
Cl       0.0549795475    1.0844956140    7.1067265764
H        1.9485371802   -1.0006658099   -1.2578903148
H        0.1399071929    0.2039174747   -0.0571111069
H        3.6480515042   -2.2700873624    0.0325558179
H        2.9643170331   -2.8231226246    6.8520124774
H       -0.0010327126    0.1318997562    2.3723031631
H        3.5658170559   -2.3342592522    2.4660252275
H        3.0007925728   -2.8703520187    4.4143139770
H        1.6555579581   -1.0904646280    8.0619272550
H        0.4444445774    0.6305958835    4.3565572147
22   

C        1.8784171944   -1.0458569426   -0.1862066369
C        1.0060271969   -0.2077082277    0.5047600924
C        2.7142781392   -1.9009917892    0.5282931275
C        2.5507678698   -1.9574361699    6.3014593372
C        0.9693463852   -0.2243208145    1.9043124404
C        2.6769274390   -1.9169263750    1.9274394176
C        2.5905390630   -1.9439128906    4.9026564373
C        1.6757431421   -1.1164500281    6.9865284094
C        0.8840314084   -0.2522162883    4.8756588337
C        1.8012636599   -1.0769674580    2.6562394865
C        1.7601218999   -1.0926428854    4.1478339143
C        0.8386673999   -0.2601985083    6.2744908894
Cl      -0.2587672139    0.7949711187    7.1225291261
H        1.9065146450   -1.0326063045   -1.2721484347
H        0.3512008071    0.4618654690   -0.0456729835
H        3.3973493826   -2.5576184725   -0.0030176554
H        3.2037850599   -2.6253842645    6.8561989547
H        0.2653820497    0.4556820502    2.3649123824
H        3.3550120798   -2.6070209051    2.4112649802
H        3.2944073283   -2.6238054733    4.4415912639
H        1.6420116411   -1.1240999720    8.0719522437
H        0.2064463319    0.4373913540    4.3918091010
