22   

C        1.8654151591   -1.0660884414   -0.1744318532
C        1.1522271200   -0.0843874193    0.5133809865
C        2.5628530958   -2.0384040293    0.5420544900
C        2.6657757686   -1.8148233923    6.3045494137
C        1.1394482465   -0.0730449816    1.9132880421
C        2.5495684283   -2.0259418086    1.9417598777
C        2.7295918291   -1.7829406733    4.9070282501
C        1.6636553028   -1.1135360948    6.9758559080
C        0.7918049265   -0.3553007141    4.8549482896
C        1.8458659547   -1.0347861920    2.6605102600
C        1.8023724922   -1.0437055815    4.1483916348
C        0.7214038597   -0.3824893066    6.2524946897
Cl      -0.5422084432    0.4823618636    7.0841138393
H        1.8746737813   -1.0752705633   -1.2607358257
H        0.6073073802    0.6756754422   -0.0392737737
H        3.1114771157   -2.8117614526    0.0120308370
H        3.3994025216   -2.3839476891    6.8686179596
H        0.5858651351    0.7243758570    2.3946060767
H        3.0826893344   -2.8219908938    2.4475001517
H        3.5384773911   -2.3277996835    4.4348710637
H        1.6101838043   -1.1359646143    8.0602778888
H        0.0182905220    0.2009936514    4.3405300227
22   

C        1.8817676061   -1.0657674591   -0.1571828064
C        1.2826783263   -0.0051002489    0.5261876880
C        2.4482578884   -2.1209142701    0.5616136902
C        2.7324622243   -1.6791323951    6.3070251533
C        1.2513589074    0.0003645067    1.9257567691
C        2.4167888003   -2.1137835843    1.9611910576
C        2.7884021354   -1.6678720082    4.9088814893
C        1.6576271406   -1.0792130211    6.9682458471
C        0.6999755207   -0.4606618188    4.8379389030
C        1.8215456537   -1.0507702391    2.6664203553
C        1.7750222552   -1.0547873246    4.1503950299
C        0.6368216268   -0.4682772093    6.2360809026
Cl      -0.7093898643    0.2722260930    7.0576378891
H        1.9054415767   -1.0707580538   -1.2432910306
H        0.8428563088    0.8184867314   -0.0290441993
H        2.9088757214   -2.9510141267    0.0336693667
H        3.5263900220   -2.1513812878    6.8787829784
H        0.7943877721    0.8456734331    2.4299463107
H        2.8442955445   -2.9573729009    2.4930417195
H        3.6417575861   -2.1249646563    4.4185090287
H        1.6096832996   -1.0859506018    8.0531315045
H       -0.1165365736   -0.0001406480    4.2926733404
22   

C        1.8897680659   -1.0596418867   -0.1503380123
C        1.4065486935    0.0545681811    0.5422188957
C        2.3239144027   -2.1843628436    0.5576552686
C        2.7969494953   -1.5620480312    6.2942062504
C        1.3560480750    0.0424516740    1.9411845361
C        2.2731412987   -2.1946667628    1.9567400656
C        2.8332146591   -1.5736498270    4.8954165028
C        1.6720157783   -1.0636551470    6.9590704764
C        0.6272964792   -0.5893254438    4.8319911127
C        1.7841173881   -1.0842979898    2.6639067469
C        1.7452959146   -1.0927938592    4.1473274417
C        0.5833056498   -0.5743076550    6.2308789504
Cl      -0.8177411491    0.0481612184    7.0584147903
H        1.9290204809   -1.0508731506   -1.2359685151
H        1.0731271041    0.9317473788   -0.0049426062
H        2.6991860455   -3.0516209314    0.0219506716
H        3.6434978341   -1.9361662926    6.8630874169
H        0.9914760815    0.9189995396    2.4683156794
H        2.6050976070   -3.0769586328    2.4955157923
H        3.7160026219   -1.9487893495    4.3863906016
H        1.6391607041   -1.0522516161    8.0444767123
H       -0.2259865223   -0.2151752230    4.2755084347
22   

C        1.8855943479   -1.0595794754   -0.1460389660
C        1.5406034681    0.1011561629    0.5541206117
C        2.1699255339   -2.2371778875    0.5534011594
C        2.8303649402   -1.4267492079    6.2874853243
C        1.4770951358    0.0822081567    1.9524893762
C        2.1059111377   -2.2540131344    1.9519671385
C        2.8579240961   -1.4524009743    4.8886683277
C        1.6604417183   -1.0480189363    6.9551466279
C        0.5543650557   -0.7193772758    4.8311528162
C        1.7495135613   -1.0986058406    2.6620860418
C        1.7150827967   -1.1100584424    4.1483505031
C        0.5185942697   -0.6907298920    6.2301415539
Cl      -0.9352223306   -0.2112145885    7.0617294591
H        1.9355729840   -1.0456097532   -1.2311735749
H        1.3253087759    1.0185125084    0.0136619201
H        2.4411341891   -3.1388437759    0.0117461763
H        3.7173675262   -1.6963661651    6.8538456589
H        1.2199311503    0.9881157429    2.4936303371
H        2.3277637155   -3.1698924672    2.4917913790
H        3.7693705978   -1.7340212975    4.3693832325
H        1.6340814078   -1.0255565589    8.0405557702
H       -0.3318885836   -0.4409187273    4.2696069768
22   

C        1.8868455843   -1.0679290984   -0.1450541490
C        1.7113952020    0.1298697600    0.5563526244
C        2.0050118816   -2.2746318220    0.5532663998
C        2.8667304620   -1.2676081810    6.2912661505
C        1.6518194828    0.1191497109    1.9550143484
C        1.9450247962   -2.2828138287    1.9521295577
C        2.9005042663   -1.2904607791    4.8925173744
C        1.6558380352   -1.0417355408    6.9557740312
C        0.5214066966   -0.8600956035    4.8288795996
C        1.7601612421   -1.0886231026    2.6611787249
C        1.7249479228   -1.0963011851    4.1517417739
C        0.4787523953   -0.8353024858    6.2278145648
Cl      -1.0266958451   -0.5468203142    7.0557075401
H        1.9336258014   -1.0606736948   -1.2303964314
H        1.6236571959    1.0685342647    0.0167287918
H        2.1443079821   -3.2053251673    0.0107166155
H        3.7794912717   -1.4220104333    6.8598276492
H        1.5225142198    1.0494907312    2.5004486420
H        2.0393038806   -3.2191971963    2.4942933784
H        3.8393015008   -1.4573407382    4.3722403051
H        1.6241541294   -1.0222381861    8.0410977748
H       -0.3898105080   -0.6969812520    4.2618174828
22   

C        1.8770476866   -1.0790290960   -0.1465643499
C        1.9016238499    0.1358288171    0.5471119642
C        1.8125645185   -2.2849798688    0.5601396502
C        2.8893632162   -1.0907735524    6.3028693058
C        1.8618624204    0.1430628137    1.9465281020
C        1.7729044988   -2.2749138852    1.9597074150
C        2.9384748042   -1.0969406571    4.9043882578
C        1.6527462394   -1.0437505918    6.9567087084
C        0.5233633311   -1.0093516560    4.8197192300
C        1.7974820640   -1.0625048667    2.6608618016
C        1.7546367197   -1.0562277842    4.1535174278
C        0.4647954305   -1.0028532024    6.2182965130
Cl      -1.0740685048   -0.9443516736    7.0328368145
H        1.9075192574   -1.0859042221   -1.2324888056
H        1.9510866586    1.0734274844    0.0008188260
H        1.7928032465   -3.2292925258    0.0236256793
H        3.8095818416   -1.1224348795    6.8794395439
H        1.8802449036    1.0852815390    2.4865289528
H        1.7222296667   -3.2105621875    2.5090050017
H        3.8954001571   -1.1333551331    4.3916877987
H        1.6087908176   -1.0387553459    8.0417682463
H       -0.3963963194   -0.9776985472    4.2438936484
22   

C        1.8730617240   -1.0909231090   -0.1472287109
C        2.0888743333    0.1088182741    0.5392722783
C        1.6242305130   -2.2680895838    0.5667801403
C        2.8687712208   -0.9165684214    6.3128432169
C        2.0583118205    0.1291716269    1.9387864214
C        1.5942492367   -2.2449036725    1.9663994195
C        2.9311753123   -0.9102793640    4.9149019638
C        1.6320432176   -1.0465407291    6.9548328021
C        0.5293716589   -1.1658425988    4.8070948416
C        1.8187629009   -1.0492129978    2.6618444988
C        1.7598458739   -1.0256666352    4.1515139173
C        0.4575639386   -1.1734183609    6.2050131980
Cl      -1.0810096612   -1.3420744645    7.0046066156
H        1.8957193134   -1.1078765755   -1.2332340078
H        2.2773411227    1.0251453495   -0.0128043893
H        1.4527099339   -3.2001238644    0.0358686034
H        3.7792005880   -0.8234472365    6.8982349350
H        2.2185517889    1.0616525768    2.4721000215
H        1.3980985838   -3.1585066411    2.5201430326
H        3.8896241720   -0.8171910051    4.4123534787
H        1.5778630840   -1.0526434981    8.0394238037
H       -0.3804251443   -1.2668508656    4.2234974112
22   

C        1.8694062310   -1.0924938438   -0.1504249835
C        2.2486330809    0.0630437386    0.5404293692
C        1.4552563717   -2.2245277759    0.5591871276
C        2.8387936003   -0.7581375794    6.3065432382
C        2.2164639975    0.0840298570    1.9398600882
C        1.4237058000   -2.2012880954    1.9587310374
C        2.8980574286   -0.7532402354    4.9084903479
C        1.6299334376   -1.0399262793    6.9522654463
C        0.5484452798   -1.3134659529    4.8079708091
C        1.8127546079   -1.0512419071    2.6610595672
C        1.7496278639   -1.0200745335    4.1461833151
C        0.4805135664   -1.3207043491    6.2060296086
Cl      -1.0228576980   -1.6787189771    7.0102459646
H        1.8933482871   -1.1096960497   -1.2363993479
H        2.5646011138    0.9455717561   -0.0084444045
H        1.1570936549   -3.1220046318    0.0247552779
H        3.7310332700   -0.5472805533    6.8893627917
H        2.5011273172    0.9860687697    2.4734728160
H        1.1014009456   -3.0826199530    2.5055663844
H        3.8385014038   -0.5460184325    4.4061711981
H        1.5786005421   -1.0456880714    8.0369972413
H       -0.3444840133   -1.5315959310    4.2305413371
22   

C        1.8714891218   -1.0859193040   -0.1512543293
C        2.3880078166    0.0067076275    0.5515147218
C        1.3147897802   -2.1618185597    0.5467468615
C        2.8069736864   -0.6236036061    6.3006282531
C        2.3490331427    0.0215750458    1.9508241655
C        1.2761416699   -2.1451556384    1.9461463881
C        2.8568930247   -0.6267729449    4.9022175546
C        1.6425386554   -1.0328745651    6.9583096077
C        0.5855655717   -1.4481456091    4.8249230661
C        1.7967097633   -1.0559966020    2.6642813309
C        1.7438329276   -1.0338390520    4.1472658351
C        0.5277217389   -1.4476967910    6.2233750276
Cl      -0.9228415738   -1.9585079898    7.0420184565
H        1.9012591906   -1.0982992327   -1.2371516547
H        2.8166247274    0.8462434407    0.0116818715
H        0.9132789561   -3.0123453171    0.0032513085
H        3.6731817391   -0.3070602399    6.8748338204
H        2.7412190188    0.8809560044    2.4861592378
H        0.8491774248   -2.9910102752    2.4765638727
H        3.7688374760   -0.3207582395    4.3983248888
H        1.5988192660   -1.0323033591    8.0433902408
H       -0.2880393074   -1.7632520076    4.2634492306
22   

C        1.9240170438   -1.0574307271   -0.1569312169
C        1.4077296489   -2.1643836576    0.5207304443
C        2.3712642660    0.0507909195    0.5661468329
C        0.6237508360   -1.7473956870    6.2200375077
C        1.3402876313   -2.1631384872    1.9190909397
C        2.3038945744    0.0506187347    1.9644161082
C        0.6905682263   -1.7505492517    4.8223177582
C        1.5760800025   -1.0456499055    6.9636237206
C        2.6567445543   -0.3549040113    4.9160469041
C        1.7917720734   -1.0585517889    2.6638525530
C        1.7058053476   -1.0507126246    4.1459949538
C        2.5968410604   -0.3472846398    6.3143282821
Cl       3.7912903274    0.5208831816    7.2390709821
H        1.9761674896   -1.0577238443   -1.2420566463
H        1.0610848601   -3.0289410201   -0.0381406689
H        2.7671160086    0.9163637344    0.0425986943
H       -0.1706364668   -2.2877291890    6.7272241386
H        0.9504694266   -3.0433289427    2.4196602974
H        2.6374283092    0.9341396948    2.4989606211
H       -0.0706769354   -2.2883842409    4.2666365757
H        1.5284375346   -1.0406420208    8.0485334369
H        3.4721100890    0.1759608943    4.4369656877
22   

C        1.9156441731   -1.0542977381   -0.1662575908
C        1.2709781664   -2.0915270523    0.5077697991
C        2.4950775912   -0.0158040035    0.5625104479
C        0.7185242608   -1.8558910863    6.2391497415
C        1.2098223391   -2.0926732371    1.9065387034
C        2.4336013659   -0.0179132930    1.9609020367
C        0.7809404749   -1.8549160517    4.8411146162
C        1.5880792315   -1.0544030383    6.9797542104
C        2.5811410324   -0.2583024211    4.9273793111
C        1.8001875817   -1.0645926496    2.6658985752
C        1.7043515320   -1.0469758786    4.1511526046
C        2.5246966076   -0.2539978950    6.3257402518
Cl       3.6247254989    0.7363882630    7.2451336865
H        1.9627825548   -1.0532316218   -1.2516169898
H        0.8175685897   -2.9025497499   -0.0549556387
H        2.9887257417    0.8006286741    0.0430810153
H       -0.0102992622   -2.4793369957    6.7494622345
H        0.7135397509   -2.9328581202    2.3769508802
H        2.8717585583    0.8285112343    2.4764715048
H        0.0704108912   -2.4803820815    4.3141090326
H        1.5429118536   -1.0524910862    8.0647838414
H        3.3463403193    0.3552200733    4.4682297773
22   

C        1.9066897588   -1.0512420777   -0.1814875709
C        1.1046496800   -1.9741638368    0.4866264853
C        2.6490889931   -0.1307510255    0.5549118193
C        0.8516739218   -1.9949098019    6.2463883510
C        1.0447041234   -1.9772421068    1.8855660477
C        2.5889504788   -0.1340584026    1.9532761436
C        0.9131400034   -1.9899804494    4.8482249835
C        1.5934333169   -1.0745799211    6.9849147061
C        2.4552891244   -0.1477294821    4.9289771455
C        1.7831880809   -1.0595884639    2.6581512216
C        1.7155819753   -1.0676806849    4.1487511403
C        2.3985610107   -0.1469637959    6.3273484675
Cl       3.3294168396    1.0075404358    7.2424803205
H        1.9528253783   -1.0493393541   -1.2668931061
H        0.5232280322   -2.6946606363   -0.0815955160
H        3.2768697063    0.5920529733    0.0415464004
H        0.2237883195   -2.7183099048    6.7590148379
H        0.3992692456   -2.7247019192    2.3263737707
H        3.1928555099    0.6098623484    2.4556234595
H        0.3093224637   -2.7342625249    4.3468612872
H        1.5479746786   -1.0756903676    8.0699381702
H        3.0998822139    0.5991728285    4.4867138025
22   

C        1.9088807235   -1.0314831699   -0.1735918158
C        0.9646765262   -1.8224467736    0.4811012920
C        2.7932610870   -0.2547466377    0.5746719068
C        0.9965260326   -2.1238575227    6.2350906372
C        0.9020282450   -1.8333067174    1.8797617453
C        2.7297184317   -0.2660482790    1.9729325962
C        1.0591569178   -2.1112358131    4.8371189776
C        1.5965068033   -1.1024143062    6.9724765437
C        2.3147991808   -0.0581865727    4.9167786892
C        1.7727584943   -1.0465709340    2.6575503920
C        1.7304121220   -1.0857127287    4.1448657394
C        2.2562170629   -0.0640215794    6.3150452754
Cl       2.9928656100    1.2234309783    7.2293845561
H        1.9577455926   -1.0234081520   -1.2588460537
H        0.2738188879   -2.4296639529   -0.0968289121
H        3.5382733003    0.3546403690    0.0710252989
H        0.4825451635   -2.9319185106    6.7480714173
H        0.1365867859   -2.4511884540    2.3334195007
H        3.4604053184    0.3305946606    2.5061847328
H        0.5938163599   -2.9380281714    4.3139984027
H        1.5498664443   -1.1085171525    8.0574287430
H        2.8100499550    0.7856811533    4.4526752461
22   

C        1.9067320538   -1.0300537548   -0.1593749737
C        0.8725318177   -1.7061641701    0.4920845809
C        2.8818065802   -0.3680626498    0.5902981604
C        1.1245257799   -2.1862755445    6.2345777415
C        0.8132419300   -1.7187954840    1.8907538739
C        2.8211006103   -0.3808878554    1.9888170358
C        1.1819078091   -2.1745217916    4.8364758645
C        1.6113088220   -1.0979223870    6.9631947839
C        2.2089690655    0.0081462961    4.8999774593
C        1.7828766061   -1.0524508686    2.6617666373
C        1.7291517812   -1.0788016672    4.1451978944
C        2.1547346852    0.0039511402    6.2984912348
Cl       2.7538870728    1.3665746950    7.2039529502
H        1.9534420186   -1.0203080022   -1.2447044698
H        0.1111696618   -2.2201834249   -0.0876329983
H        3.6915317463    0.1531381179    0.0875940714
H        0.7046362471   -3.0431318367    6.7539397752
H       -0.0107261626   -2.2375009837    2.3695900597
H        3.6046515772    0.1226329164    2.5456883074
H        0.8135452488   -3.0389463350    4.2936856337
H        1.5685502970   -1.1024616366    8.0483085148
H        2.6144662479    0.8850550346    4.4072684847
22   

C        1.9148073586   -1.0233115616   -0.1566814308
C        0.8042119046   -1.5818480695    0.4829401788
C        2.9589115161   -0.4877393655    0.6033761519
C        1.2366779245   -2.2518685809    6.2268471136
C        0.7396445688   -1.6059214805    1.8811715718
C        2.8925538795   -0.5121642576    2.0016236047
C        1.2895635568   -2.2390873059    4.8286056275
C        1.6090454677   -1.1140095089    6.9497169915
C        2.0867003103    0.0414978247    4.8814645432
C        1.7849248260   -1.0753860717    2.6565474456
C        1.7099504169   -1.0893605757    4.1386937575
C        2.0364548659    0.0366805557    6.2802084977
Cl       2.5013265077    1.4541919488    7.1800918225
H        1.9657483246   -1.0041397927   -1.2416928963
H       -0.0107521490   -1.9942084932   -0.1050612487
H        3.8233064836   -0.0536811343    0.1089994954
H        0.9102287913   -3.1460507794    6.7503915636
H       -0.1334171966   -2.0303892865    2.3675039416
H        3.7141904288   -0.1009688582    2.5803659419
H        1.0120421651   -3.1305849405    4.2741609974
H        1.5698499861   -1.1189203306    8.0349600981
H        2.4111770227    0.9424942867    4.3709259947
22   

C        1.9206682708   -1.0214539997   -0.1551120460
C        0.7461657338   -1.4430568794    0.4766871318
C        3.0222354659   -0.6281479403    0.6119893221
C        1.3713722109   -2.2834179952    6.2362282596
C        0.6758037405   -1.4740365758    1.8745322644
C        2.9496483523   -0.6597659809    2.0098399262
C        1.4162901045   -2.2798422720    4.8376390444
C        1.6161283819   -1.1020056328    6.9447882892
C        1.9521537814    0.0774598268    4.8619054512
C        1.7803512185   -1.0916433592    2.6528279085
C        1.6962753894   -1.0956750306    4.1372228300
C        1.9094745697    0.0825679758    6.2609736086
Cl       2.2213906951    1.5518275551    7.1436106792
H        1.9761662776   -0.9963830583   -1.2397779691
H       -0.1128328326   -1.7429697978   -0.1167163653
H        3.9343129108   -0.2971716259    0.1235712771
H        1.1506308829   -3.2030368035    6.7708369387
H       -0.2409671767   -1.7915256587    2.3625715383
H        3.8074415922   -0.3534325710    2.6014531297
H        1.2378711218   -3.1988158016    4.2868627833
H        1.5831760895   -1.0994134862    8.0302458206
H        2.1799692981    0.9975991430    4.3329708813
22   

C        1.9192516877   -1.0249611239   -0.1524259916
C        0.6987389672   -1.2834561563    0.4806391605
C        3.0676558172   -0.7966680796    0.6134057951
C        1.5297352536   -2.3117810132    6.2465354324
C        0.6289114095   -1.3160455670    1.8785134933
C        2.9950032601   -0.8298701080    2.0112568828
C        1.5732877159   -2.3113380562    4.8478669039
C        1.6226736142   -1.1039197847    6.9472273234
C        1.8045157952    0.0953265072    4.8563787483
C        1.7783251658   -1.0974185842    2.6530004908
C        1.7017855179   -1.1057792903    4.1420287539
C        1.7621397980    0.1042934228    6.2554913971
Cl       1.8846836461    1.6069845996    7.1283624832
H        1.9745823281   -0.9986040892   -1.2370697933
H       -0.1953877806   -1.4561082161   -0.1115533270
H        4.0156963810   -0.5921022380    0.1241754728
H        1.4267056494   -3.2484962356    6.7870782522
H       -0.3197897495   -1.5094569770    2.3706306059
H        3.8862592738   -0.6496460131    2.6053608522
H        1.5090689350   -3.2471148018    4.3001056170
H        1.5900378501   -1.0984919714    8.0326838656
H        1.9153688506    1.0314085621    4.3178800326
22   

C        1.9066783377   -1.0356908818   -0.1520775541
C        0.6687636578   -1.1029635772    0.4965345621
C        3.0863557798   -0.9889247380    0.5989535627
C        1.7064707530   -2.3235023835    6.2452077097
C        0.6122555796   -1.1235409782    1.8952476467
C        3.0269455958   -1.0096380379    1.9976995122
C        1.7616368403   -2.3127821488    4.8469766542
C        1.6219412885   -1.1165076135    6.9487184253
C        1.6479341564    0.1025515460    4.8614924589
C        1.7912002247   -1.0771869095    2.6538733323
C        1.7327031871   -1.0985959668    4.1458371986
C        1.5923063998    0.1013520350    6.2602018779
Cl       1.4870808550    1.6033678416    7.1364863114
H        1.9518029714   -1.0193158029   -1.2373898062
H       -0.2485465287   -1.1387931404   -0.0841815354
H        4.0485167295   -0.9360984394    0.0975348102
H        1.7292482156   -3.2671150834    6.7830871751
H       -0.3479404900   -1.1751178092    2.4002994348
H        3.9421799982   -0.9727442284    2.5814124718
H        1.8273113130   -3.2465225955    4.2958792916
H        1.5788646258   -1.1189558292    8.0338219041
H        1.6251473638    1.0456661056    4.3243209402
22   

C        1.8952365625   -1.0344370921   -0.1523763982
C        0.6718817256   -0.9045909512    0.5139934979
C        3.0785133148   -1.1722051419    0.5815546613
C        1.8839040698   -2.3111932840    6.2347644388
C        0.6335979653   -0.9101546355    1.9134280494
C        3.0377484201   -1.1774090523    1.9811247959
C        1.9557371563   -2.2794311863    4.8376350007
C        1.6203216940   -1.1350757909    6.9461784772
C        1.4988209531    0.0953944250    4.8689438746
C        1.8176335017   -1.0384836922    2.6556548496
C        1.7730643706   -1.0726723899    4.1455982304
C        1.4249478218    0.0724459367    6.2666172139
Cl       1.0895536789    1.5344817133    7.1525978944
H        1.9259923120   -1.0306569569   -1.2383083960
H       -0.2486050120   -0.8017681257   -0.0535577749
H        4.0289891746   -1.2761674382    0.0660532856
H        2.0295998523   -3.2478021811    6.7655874600
H       -0.3165073562   -0.8162932069    2.4313508487
H        3.9559513710   -1.2869080432    2.5508227540
H        2.1520457426   -3.1911141667    4.2807019525
H        1.5627565697   -1.1542754511    8.0304431337
H        1.3443972425    1.0303089696    4.3392565340
22   

C        1.8883812758   -1.0377025229   -0.1529704654
C        0.6997884075   -0.7362216699    0.5200115713
C        3.0439134387   -1.3411631211    0.5746708806
C        2.0399524374   -2.2666776712    6.2409710107
C        0.6688184309   -0.7352966724    1.9196055650
C        3.0108231758   -1.3397587234    1.9744122926
C        2.1151954163   -2.2309898005    4.8441296267
C        1.6241936169   -1.1319002179    6.9462050227
C        1.3575994953    0.0652586431    4.8632906286
C        1.8270618177   -1.0272932529    2.6580241702
C        1.7857186150   -1.0595287318    4.1437948490
C        1.2792651885    0.0377311285    6.2605667324
Cl       0.7536851721    1.4476909282    7.1385362535
H        1.9131502608   -1.0391262674   -1.2390620904
H       -0.2004611782   -0.5062159402   -0.0426951248
H        3.9671741694   -1.5786725210    0.0539760492
H        2.2998628540   -3.1754841690    6.7764608056
H       -0.2585078784   -0.5118605784    2.4390070435
H        3.9096879457   -1.5763184490    2.5361465754
H        2.4256382858   -3.1152301458    4.2950882736
H        1.5631905776   -1.1546505482    8.0302129733
H        1.0886951175    0.9730052337    4.3322492068
22   

C        1.8896555675   -1.0423488465   -0.1568807410
C        0.7456797219   -0.6022962022    0.5155982191
C        2.9934558996   -1.4960708623    0.5714606704
C        2.1733424178   -2.2324638577    6.2549063386
C        0.7071759389   -0.6144591702    1.9149359956
C        2.9530989481   -1.5080124966    1.9708816411
C        2.2346862575   -2.2058628176    4.8571913082
C        1.6387022554   -1.1435470568    6.9508945861
C        1.2273503387   -0.0092903129    4.8568202753
C        1.8123664720   -1.0628142956    2.6584295290
C        1.7677294487   -1.0902956136    4.1416390383
C        1.1625851269   -0.0282531294    6.2548445498
Cl       0.4950875702    1.3279288412    7.1211245361
H        1.9201973441   -1.0329360830   -1.2427865192
H       -0.1153095783   -0.2537807284   -0.0476386006
H        3.8837834510   -1.8378380438    0.0514075514
H        2.5370624703   -3.0998290722    6.7986135770
H       -0.1919259492   -0.2829353914    2.4256453756
H        3.8195368778   -1.8545311034    2.5259688896
H        2.6378729994   -3.0610550738    4.3231130598
H        1.5887068332   -1.1595041601    8.0355880615
H        0.8631055686    0.8642338060    4.3257495768
22   

C        1.8911926636   -1.0397723037   -0.1596796923
C        0.8004828021   -0.4813570918    0.5107394011
C        2.9272347751   -1.6258768983    0.5711026722
C        2.2884852339   -2.1603331208    6.2804747200
C        0.7459671063   -0.5101844849    1.9093087604
C        2.8710935513   -1.6545938407    1.9696334509
C        2.3269167383   -2.1565655716    4.8817038118
C        1.6531992502   -1.1209377404    6.9648802568
C        1.0986381592   -0.0795035390    4.8563783750
C        1.7773603220   -1.1009347000    2.6615884441
C        1.7289932977   -1.1180829508    4.1453811169
C        1.0564494573   -0.0760705194    6.2553312845
Cl       0.2718874693    1.2261965251    7.1063035364
H        1.9342200854   -1.0167619176   -1.2449618537
H       -0.0083684101   -0.0265111844   -0.0539702305
H        3.7804769822   -2.0549856025    0.0536089474
H        2.7496658968   -2.9731097249    6.8345092056
H       -0.1216741361   -0.0839266573    2.4023369271
H        3.7005354488   -2.0960059714    2.5122709080
H        2.8109274982   -2.9834456017    4.3721749252
H        1.6213043022   -1.1193386384    8.0503764060
H        0.6480303005    0.7548904420    4.3302412326
22   

C        1.8980532932   -1.0331306424   -0.1731795623
C        0.8839378097   -0.3551805840    0.5031448882
C        2.8495398411   -1.7490221060    0.5530043574
C        2.4093028338   -2.0737046143    6.2947489089
C        0.8195491796   -0.3959394278    1.9010808049
C        2.7840349900   -1.7892781752    1.9507150582
C        2.4309130914   -2.0844159633    4.8956159343
C        1.6731216802   -1.1039916730    6.9762151912
C        0.9868921411   -0.1583877897    4.8624002828
C        1.7593974203   -1.1220681199    2.6572113154
C        1.7116182910   -1.1353078037    4.1449256150
C        0.9605245920   -0.1411369386    6.2616280181
Cl       0.0522229420    1.0823468158    7.1068200687
H        1.9483917005   -1.0008413039   -1.2579144597
H        0.1398794525    0.2038809656   -0.0571118992
H        3.6478534462   -2.2703468703    0.0325132882
H        2.9640298733   -2.8234062440    6.8519825577
H       -0.0010174210    0.1319935840    2.3722055153
H        3.5657082831   -2.3344482273    2.4659449925
H        3.0013192988   -2.8699846972    4.4143486854
H        1.6540045997   -1.0917496268    8.0619490098
H        0.4427104216    0.6293879292    4.3567424408
22   

C        1.8784171822   -1.0458569525   -0.1862066353
C        1.0060271881   -0.2077082366    0.5047600937
C        2.7142781292   -1.9009917972    0.5282931301
C        2.5507678437   -1.9574361813    6.3014593351
C        0.9693463852   -0.2243208145    1.9043124404
C        2.6769274318   -1.9169263805    1.9274394197
C        2.5905390630   -1.9439128906    4.9026564373
C        1.6757431117   -1.1164500477    6.9865284090
C        0.8840313959   -0.2522162995    4.8756588345
C        1.8012636599   -1.0769674580    2.6562394865
C        1.7601218999   -1.0926428854    4.1478339143
C        0.8386673772   -0.2601985276    6.2744908895
Cl      -0.2587672420    0.7949710826    7.1225291342
H        1.9065146229   -1.0326063122   -1.2721484335
H        0.3512007905    0.4618654541   -0.0456729797
H        3.3973493708   -2.5576184820   -0.0030176509
H        3.2037850163   -2.6253842859    6.8561989542
H        0.2653820509    0.4556820546    2.3649123783
H        3.3550120680   -2.6070209134    2.4112649840
H        3.2944073345   -2.6238054718    4.4415912709
H        1.6420116009   -1.1241000009    8.0719522425
H        0.2064463164    0.4373913401    4.3918091053
