6    

H       -0.5749021080   -0.0595439324   -0.7665335905
C        0.0265029860    0.3285873984    0.0622781325
H       -0.6527901497    0.6968640109    0.8384030386
O        0.8555078794   -0.6603517933    0.5691650396
H        0.3693021461   -1.4836636018    0.6803959269
Br       1.1592517316    1.7752291708   -0.5751771856
6    

H       -0.5718764953   -0.0848610594   -0.7384381780
C        0.0176082184    0.3321279475    0.0848353986
H       -0.6714420262    0.7392283063    0.8324709410
O        0.8212930762   -0.6421295313    0.6507257606
H        0.4136791201   -1.5103746114    0.5776206288
Br       1.1692762218    1.7554532357   -0.6005047357
6    

H       -0.5801035371   -0.1062281045   -0.7136739067
C        0.0036071176    0.3309986617    0.1031364600
H       -0.6899201552    0.7801692540    0.8220023467
O        0.7673518483   -0.6344633477    0.7259371857
H        0.4809435434   -1.5203888993    0.4858333382
Br       1.1874069145    1.7302239960   -0.6185556166
6    

H       -0.6019323649   -0.1210211300   -0.6908655617
C       -0.0146775220    0.3262446868    0.1179130864
H       -0.7055183033    0.8168009895    0.8118933257
O        0.6999654124   -0.6364032540    0.7873022328
H        0.5667271380   -1.5107512156    0.4089969529
Br       1.2109382935    1.6979839820   -0.6321376192
6    

H       -0.2605086801   -0.1121172320   -0.9357499795
C       -0.0530071288    0.2861443257    0.0629546713
H       -1.0009467379    0.6230824300    0.4958614614
O        0.4857215433   -0.6808208071    0.8633354941
H        0.8221980589   -1.4253921497    0.3532507893
Br       1.1653807057    1.8663605049   -0.0828260891
6    

H       -0.2963842590   -0.1102232549   -0.9371219475
C       -0.0763876410    0.2780286010    0.0628936958
H       -1.0132656050    0.6502179922    0.4909926131
O        0.4121291871   -0.7123613411    0.8589669340
H        0.9225111436   -1.3576735426    0.3551123988
Br       1.2029454636    1.8166571064   -0.0823396725
6    

H       -0.3354374761   -0.0960153934   -0.9430587559
C       -0.0986849618    0.2718421465    0.0608859272
H       -1.0205691610    0.6732383858    0.4951106688
O        0.3506340732   -0.7494748583    0.8376581207
H        1.0134383043   -1.2794657849    0.3760674444
Br       1.2388743898    1.7587359899   -0.0823010727
6    

H       -0.3771672871   -0.0689139314   -0.9529499307
C       -0.1171924212    0.2683668356    0.0560238990
H       -1.0203103270    0.6920264941    0.5081670819
O        0.3026500753   -0.7917456530    0.8006290524
H        1.0910032222   -1.1983819384    0.4167365848
Br       1.2697432603    1.6981847423   -0.0830490317
6    

H       -0.4230499474   -0.0322965897   -0.9646062778
C       -0.1305534697    0.2654958399    0.0479206866
H       -1.0115892170    0.7019528957    0.5304353464
O        0.2692791499   -0.8379763960    0.7479846288
H        1.1516847444   -1.1232876677    0.4770211886
Br       1.2926675790    1.6441641515   -0.0870705316
6    

H       -0.4708656328    0.0101978799   -0.9771952734
C       -0.1379202271    0.2621609083    0.0353002704
H       -0.9949269005    0.7001029696    0.5580579401
O        0.2513387554   -0.8849762839    0.6811041859
H        1.1919756744   -1.0600821392    0.5556259292
Br       1.3067299337    1.6027725353   -0.0941469222
6    

H       -0.5178002486    0.0554161806   -0.9884133082
C       -0.1394461515    0.2585205691    0.0191075890
H       -0.9705060017    0.6870484991    0.5893891202
O        0.2490553683   -0.9282219899    0.6033881813
H        1.2083814522   -1.0099822520    0.6461968028
Br       1.3139865548    1.5763468926   -0.1037999700
6    

H       -0.5608333610    0.0967411201   -0.9965387075
C       -0.1369423178    0.2528388716    0.0011881002
H       -0.9400845749    0.6622898486    0.6231377577
O        0.2623554178   -0.9632881261    0.5193244349
H        1.1995706802   -0.9710181467    0.7414743083
Br       1.3173629474    1.5651724938   -0.1165163957
6    

H       -0.5987003487    0.1314796710   -0.9995313922
C       -0.1313884678    0.2461613851   -0.0156689050
H       -0.9036782084    0.6303074363    0.6592399333
O        0.2892211148   -0.9870997005    0.4346908973
H        1.1649078092   -0.9434950191    0.8348089703
Br       1.3201677998    1.5664709752   -0.1340668405
6    

H       -0.6316338419    0.1569265901   -0.9949977894
C       -0.1230715823    0.2396502919   -0.0285349156
H       -0.8628428068    0.5944269711    0.6969699102
O        0.3282462997   -0.9985999640    0.3556470561
H        1.1071360904   -0.9316587934    0.9213806572
Br       1.3210540778    1.5806252183   -0.1596583155
6    

H       -0.6584504245    0.1717191246   -0.9825885851
C       -0.1113872168    0.2352533965   -0.0358973131
H       -0.8204507600    0.5593140364    0.7332964605
O        0.3774350281   -0.9984456838    0.2882830578
H        1.0308205092   -0.9410299855    0.9976488602
Br       1.3169336847    1.6075746076   -0.1952333407
6    

H       -0.6760300874    0.1762438785   -0.9647689671
C       -0.0951204216    0.2348364147   -0.0381330478
H       -0.7787848418    0.5301293146    0.7648482613
O        0.4350534840   -0.9885876171    0.2371669014
H        0.9413891649   -0.9733144171    1.0604121375
Br       1.3051297936    1.6446851914   -0.2392665551
6    

H       -0.6838102627    0.1694687760   -0.9450694434
C       -0.0759810870    0.2376205688   -0.0365323941
H       -0.7410124770    0.5089237660    0.7901499359
O        0.4992795391   -0.9702849559    0.2051087478
H        0.8434556474   -1.0239495674    1.1061796402
Br       1.2858670524    1.6876943998   -0.2876829556
6    

H       -0.6820090732    0.1546849074   -0.9256158695
C       -0.0541035143    0.2444418254   -0.0327484379
H       -0.7051962751    0.4995848342    0.8099552850
O        0.5686652282   -0.9449394665    0.1926044476
H        0.7418319019   -1.0861820341    1.1311410242
Br       1.2612784149    1.7286160395   -0.3363304650
6    

H       -0.6726534607    0.1320051989   -0.9080122847
C       -0.0317514077    0.2540993244   -0.0283176442
H       -0.6723746771    0.5022729788    0.8243791399
O        0.6415120808   -0.9122691955    0.2000685532
H        0.6407428297   -1.1527422561    1.1327858300
Br       1.2338911660    1.7630614695   -0.3804350573
6    

H       -0.6583612654    0.1039429540   -0.8913426326
C       -0.0106182736    0.2672342124   -0.0234255766
H       -0.6437711127    0.5187092112    0.8338466383
O        0.7145065452   -0.8715399421    0.2273489730
H        0.5460383080   -1.2178260418    1.1088566386
Br       1.2066279175    1.7868277891   -0.4178072392
6    

H       -0.6425099359    0.0707761178   -0.8720246978
C        0.0070418498    0.2813309860   -0.0157236117
H       -0.6233363483    0.5453486112    0.8398361644
O        0.7794815098   -0.8248474683    0.2724918507
H        0.4640668712   -1.2806980957    1.0581460728
Br       1.1837256052    1.7998394336   -0.4510328176
6    

H       -0.6249506536    0.0355141007   -0.8488887157
C        0.0202152108    0.2955345926   -0.0029394281
H       -0.6152229845    0.5785289235    0.8428051781
O        0.8292244082   -0.7759765323    0.3327646787
H        0.4010101576   -1.3405730816    0.9833066522
Br       1.1676640157    1.8038219900   -0.4828482425
6    

H       -0.6059156894    0.0009394023   -0.8227014327
C        0.0279370110    0.3091127819    0.0155685208
H       -0.6201305531    0.6155424023    0.8434405209
O        0.8598532687   -0.7292997456    0.4051711012
H        0.3628959842   -1.3956224897    0.8906087906
Br       1.1580037709    1.8004475411   -0.5146712852
6    

H       -0.5879593419   -0.0309808289   -0.7947117746
C        0.0300331009    0.3205165246    0.0382941858
H       -0.6341386539    0.6551234421    0.8422084209
O        0.8687437554   -0.6898228926    0.4854328259
H        0.3520975846   -1.4443088187    0.7870949006
Br       1.1552147913    1.7905936092   -0.5461351047
