22   

C        1.8654138299   -1.0660895461   -0.1744318130
C        1.1522265907   -0.0843878920    0.5133809774
C        2.5628513193   -2.0384054264    0.5420545756
C        2.6657757479   -1.8148234195    6.3045494129
C        1.1394482465   -0.0730449816    1.9132880421
C        2.5495671185   -2.0259427832    1.9417599606
C        2.7295918291   -1.7829406733    4.9070282501
C        1.6636552203   -1.1135361886    6.9758558929
C        0.7918049339   -0.3553006906    4.8549482733
C        1.8458659547   -1.0347861920    2.6605102600
C        1.8023724922   -1.0437055815    4.1483916348
C        0.7214038000   -0.3824893665    6.2524946712
Cl      -0.5422085656    0.4823617223    7.0841138138
H        1.8746721008   -1.0752719918   -1.2607357862
H        0.6073070598    0.6756750761   -0.0392738419
H        3.1114745939   -2.8117634095    0.0120309644
H        3.3994025269   -2.3839476740    6.8686179677
H        0.5858656888    0.7243762437    2.3946060819
H        3.0826874947   -2.8219921436    2.4475003783
H        3.5384774002   -2.3277996061    4.4348709710
H        1.6101836603   -1.1359647800    8.0602778701
H        0.0182905703    0.2009937122    4.3405299760
22   

C        1.8817478268   -1.0657794570   -0.1571827016
C        1.2826704163   -0.0051052680    0.5261875257
C        2.4482317214   -2.1209295880    0.5616141069
C        2.7324626725   -1.6791318275    6.3070251580
C        1.2513589074    0.0003645067    1.9257567691
C        2.4167699965   -2.1137942055    1.9611916192
C        2.7884021354   -1.6678720082    4.9088814893
C        1.6576280261   -1.0792115979    6.9682458415
C        0.6999761835   -0.4606606627    4.8379388514
C        1.8215456537   -1.0507702391    2.6664203553
C        1.7750222552   -1.0547873246    4.1503950299
C        0.6368226550   -0.4682754733    6.2360808854
Cl      -0.7093881682    0.2722289819    7.0576379197
H        1.9054164026   -1.0707734939   -1.2432910278
H        0.8428512673    0.8184830073   -0.0290447140
H        2.9088386376   -2.9510356112    0.0336699569
H        3.5263903479   -2.1513809703    6.8787829438
H        0.7943955970    0.8456775627    2.4299465414
H        2.8442702130   -2.9573860158    2.4930436878
H        3.6417565885   -2.1249654235    4.4185078632
H        1.6096844185   -1.0859487274    8.0531315107
H       -0.1165355625   -0.0001390741    4.2926730789
22   

C        1.8897165742   -1.0596650432   -0.1503390722
C        1.4065279472    0.0545584161    0.5422180580
C        2.3238465951   -2.1843924208    0.5576543342
C        2.7969500638   -1.5620471987    6.2942062333
C        1.3560480750    0.0424516740    1.9411845361
C        2.2730929159   -2.1946874331    1.9567399155
C        2.8332146591   -1.5736498270    4.8954165028
C        1.6720168378   -1.0636531155    6.9590704435
C        0.6272972527   -0.5893237817    4.8319910504
C        1.7841173881   -1.0842979898    2.6639067469
C        1.7452959146   -1.0927938592    4.1473274417
C        0.5833068512   -0.5743051902    6.2308789131
Cl      -0.8177392138    0.0481652531    7.0584148039
H        1.9289548193   -1.0509029546   -1.2359701421
H        1.0731134809    0.9317399615   -0.0049440218
H        2.6990899959   -3.0516624119    0.0219492262
H        3.6434982644   -1.9361658843    6.8630873247
H        0.9914960723    0.9190074799    2.4683163615
H        2.6050331318   -3.0769844841    2.4955171638
H        3.7160011854   -1.9487908462    4.3863890904
H        1.6391620191   -1.0522489804    8.0444766808
H       -0.2259853357   -0.2151728887    4.2755081531
22   

C        1.8855112409   -1.0596039496   -0.1460419741
C        1.5405698140    0.1011457838    0.5541189541
C        2.1698164453   -2.2372092074    0.5533975836
C        2.8303650423   -1.4267491301    6.2874853130
C        1.4770951358    0.0822081567    1.9524893762
C        2.1058335684   -2.2540352704    1.9519651412
C        2.8579240961   -1.4524009743    4.8886683277
C        1.6604418093   -1.0480187586    6.9551465815
C        0.5543650280   -0.7193773618    4.8311527350
C        1.7495135613   -1.0986058406    2.6620860418
C        1.7150827967   -1.1100584424    4.1483505031
C        0.5185942986   -0.6907298407    6.2301414846
Cl      -0.9352222727   -0.2112144689    7.0617293898
H        1.9354668570   -1.0456412365   -1.2311777336
H        1.3252863302    1.0185045178    0.0136598505
H        2.4409796837   -3.1388876891    0.0117408295
H        3.7173675942   -1.6963662696    6.8538456134
H        1.2199632750    0.9881241373    2.4936315818
H        2.3276604706   -3.1699206718    2.4917896647
H        3.7693698883   -1.7340220467    4.3693823499
H        1.6340814961   -1.0255562893    8.0405557236
H       -0.3318884851   -0.4409187811    4.2696066861
22   

C        1.8867698450   -1.0679393944   -0.1450569025
C        1.7113643703    0.1298653272    0.5563512792
C        2.0049128060   -2.2746449276    0.5532629429
C        2.8667302492   -1.2676091793    6.2912661651
C        1.6518194828    0.1191497109    1.9550143484
C        1.9449545433   -2.2828231456    1.9521273653
C        2.9005042663   -1.2904607791    4.8925173744
C        1.6558375136   -1.0417380351    6.9557740229
C        0.5214062100   -0.8600980511    4.8288795670
C        1.7601612421   -1.0886231026    2.6611787249
C        1.7249479228   -1.0963011851    4.1517417739
C        0.4787517144   -0.8353058519    6.2278145384
Cl      -1.0266969503   -0.5468258380    7.0557074880
H        1.9335289422   -1.0606869698   -1.2304001152
H        1.6236362956    1.0685307142    0.0167273654
H        2.1441676567   -3.2053435047    0.0107115469
H        3.7794910937   -1.4220111756    6.8598276796
H        1.5225433623    1.0494941778    2.5004496772
H        2.0392104298   -3.2192091250    2.4942907152
H        3.8393015023   -1.4573401110    4.3722401084
H        1.6241534543   -1.0222413499    8.0410977756
H       -0.3898110586   -0.6969844188    4.2618173266
22   

C        1.8770478880   -1.0790290903   -0.1465643503
C        1.9016239186    0.1358288221    0.5471119667
C        1.8125647875   -2.2849798689    0.5601396468
C        2.8893632273   -1.0907735472    6.3028693061
C        1.8618624204    0.1430628137    1.9465281020
C        1.7729046837   -2.2749138869    1.9597074116
C        2.9384748042   -1.0969406571    4.9043882578
C        1.6527462583   -1.0437505239    6.9567087105
C        0.5233633402   -1.0093515716    4.8197192406
C        1.7974820640   -1.0625048667    2.6608618016
C        1.7546367197   -1.0562277842    4.1535174278
C        0.4647954532   -1.0028530809    6.2182965227
Cl      -1.0740684621   -0.9443514225    7.0328368417
H        1.9075195215   -1.0859042093   -1.2324888056
H        1.9510866827    1.0734274956    0.0008188357
H        1.7928036253   -3.2292925282    0.0236256763
H        3.8095818480   -1.1224349334    6.8794395461
H        1.8802448141    1.0852815381    2.4865289575
H        1.7222298968   -3.2105621919    2.5090049955
H        3.8954001521   -1.1333551719    4.3916877919
H        1.6087908420   -1.0387552589    8.0417682484
H       -0.3963963212   -0.9776984327    4.2438936816
22   

C        1.8731354487   -1.0909384727   -0.1472263548
C        2.0889043026    0.1088118007    0.5392730336
C        1.6243270817   -2.2681093800    0.5667833476
C        2.8687709146   -0.9165679414    6.3128431993
C        2.0583118205    0.1291716269    1.9387864214
C        1.5943177479   -2.2449177438    1.9664019503
C        2.9311753123   -0.9102793640    4.9149019638
C        1.6320426677   -1.0465394727    6.9548325324
C        0.5293714518   -1.1658414298    4.8070943542
C        1.8187629009   -1.0492129978    2.6618444988
C        1.7598458739   -1.0256666352    4.1515139173
C        0.4575634396   -1.1734166853    6.2050127135
Cl      -1.0810103950   -1.3420717511    7.0046058945
H        1.8958135177   -1.1078963049   -1.2332311567
H        2.2773613310    1.0251404575   -0.0128043429
H        1.4528467080   -3.2001516996    0.0358729387
H        3.7792001917   -0.8234469295    6.8982350820
H        2.2185233719    1.0616580076    2.4720990762
H        1.3981896981   -3.1585248934    2.5201466639
H        3.8896242177   -0.8171913768    4.4123534791
H        1.5778622973   -1.0526419150    8.0394235247
H       -0.3804250880   -1.2668497166    4.2234965160
22   

C        1.8694872482   -1.0925240831   -0.1504215704
C        2.2486658711    0.0630310105    0.5404303199
C        1.4553627549   -2.2245666398    0.5591919740
C        2.8387930406   -0.7581386244    6.3065432148
C        2.2164639975    0.0840298570    1.9398600882
C        1.4237814394   -2.2013155451    1.9587350271
C        2.8980574286   -0.7532402354    4.9084903479
C        1.6299327469   -1.0399288137    6.9522647236
C        0.5484456229   -1.3134684912    4.8079695043
C        1.8127546079   -1.0512419071    2.6610595672
C        1.7496278639   -1.0200745335    4.1461833151
C        0.4805133746   -1.3207078026    6.2060282854
Cl      -1.0228576970   -1.6787248817    7.0102438952
H        1.8934517317   -1.1097349065   -1.2363953039
H        2.5646229263    0.9455621740   -0.0084447187
H        1.1572443428   -3.1220592336    0.0247618486
H        3.7310323041   -0.5472812604    6.8893632678
H        2.5010958884    0.9860794577    2.4734715468
H        1.1015016030   -3.0826551131    2.5055727192
H        3.8385012269   -0.5460173468    4.4061712867
H        1.5785994229   -1.0456913074    8.0369964969
H       -0.3444823351   -1.5316001459    4.2305385553
22   

C        1.8715395190   -1.0859462027   -0.1512517091
C        2.3880281217    0.0066963828    0.5515154087
C        1.3148561490   -2.1618531192    0.5467507213
C        2.8069732761   -0.6236052192    6.3006282529
C        2.3490331427    0.0215750458    1.9508241655
C        1.2761890283   -2.1451798921    1.9461496188
C        2.8568930247   -0.6267729449    4.9022175546
C        1.6425384249   -1.0328783507    6.9583088208
C        0.5855664673   -1.4481491374    4.8249216153
C        1.7967097633   -1.0559966020    2.6642813309
C        1.7438329276   -1.0338390520    4.1472658351
C        0.5277222301   -1.4477017306    6.2233735687
Cl      -0.9228403547   -1.9585162846    7.0420161658
H        1.9013234593   -1.0983337898   -1.2371485679
H        2.8166380440    0.8462351190    0.0116815542
H        0.9133729675   -3.0123938654    0.0032566418
H        3.6731807841   -0.3070614391    6.8748344131
H        2.7411993595    0.8809654657    2.4861585107
H        0.8492405904   -2.9910409477    2.4765696770
H        3.7688369910   -0.3207566781    4.3983249214
H        1.5988187394   -1.0323082409    8.0433894458
H       -0.2880365032   -1.7632574271    4.2634457530
22   

C        1.9239961338   -1.0574206863   -0.1569317921
C        1.4077212778   -2.1643794525    0.5207300336
C        2.3712365806    0.0508037393    0.5661463203
C        0.6237509776   -1.7473948807    6.2200375188
C        1.3402876313   -2.1631384872    1.9190909397
C        2.3038746786    0.0506276106    1.9644159734
C        0.6905682263   -1.7505492517    4.8223177582
C        1.5760799836   -1.0456481989    6.9636232351
C        2.6567439629   -0.3549026205    4.9160459828
C        1.7917720734   -1.0585517889    2.6638525530
C        1.7058053476   -1.0507126246    4.1459949538
C        2.5968406204   -0.3472825648    6.3143273610
Cl       3.7912893426    0.5208865793    7.2390695073
H        1.9761408968   -1.0577109224   -1.2420574957
H        1.0610794974   -3.0289378777   -0.0381412988
H        2.7670767915    0.9163817028    0.0425979746
H       -0.1706360307   -2.2877284370    6.7272245509
H        0.9504775941   -3.0433322919    2.4196608389
H        2.6374015817    0.9341505725    2.4989615435
H       -0.0706764840   -2.2883848632    4.2666365172
H        1.5284376267   -1.0406398003    8.0485329549
H        3.4721084275    0.1759627286    4.4369632877
22   

C        1.9156424731   -1.0542966422   -0.1662576289
C        1.2709774948   -2.0915266010    0.5077697674
C        2.4950753210   -0.0158025924    0.5625104232
C        0.7185243203   -1.8558910334    6.2391497482
C        1.2098223391   -2.0926732371    1.9065387034
C        2.4335997321   -0.0179123188    1.9609020405
C        0.7809404749   -1.8549160517    4.8411146162
C        1.5880793486   -1.0544029703    6.9797541572
C        2.5811411013   -0.2583024355    4.9273792120
C        1.8001875817   -1.0645926496    2.6658985752
C        1.7043515320   -1.0469758786    4.1511526046
C        2.5246967407   -0.2539978732    6.3257401516
Cl       3.6247257180    0.7363882561    7.2451335185
H        1.9627803955   -1.0532302172   -1.2516170495
H        0.8175681747   -2.9025494270   -0.0549556920
H        2.9887225030    0.8006306643    0.0430809800
H       -0.0102991975   -2.4793369053    6.7494622956
H        0.7135404469   -2.9328585019    2.3769509445
H        2.8717562861    0.8285124766    2.4764716289
H        0.0704108796   -2.4803820563    4.3141090101
H        1.5429120157   -1.0524909807    8.0647837900
H        3.3463403760    0.3552199663    4.4682295147
22   

C        1.9066897610   -1.0512420824   -0.1814875650
C        1.1046496867   -1.9741638414    0.4866264907
C        2.6490889968   -0.1307510332    0.5549118294
C        0.8516739087   -1.9949098071    6.2463883493
C        1.0447041234   -1.9772421068    1.8855660477
C        2.5889504828   -0.1340584051    1.9532761525
C        0.9131400034   -1.9899804494    4.8482249835
C        1.5934333024   -1.0745799317    6.9849147127
C        2.4552891220   -0.1477294832    4.9289771529
C        1.7831880809   -1.0595884639    2.6581512216
C        1.7155819753   -1.0676806849    4.1487511403
C        2.3985610099   -0.1469638114    6.3273484783
Cl       3.3294168589    1.0075403928    7.2424803452
H        1.9528253731   -1.0493393653   -1.2668931014
H        0.5232280497   -2.6946606537   -0.0815955005
H        3.2768697153    0.5920529595    0.0415464147
H        0.2237883071   -2.7183099204    6.7590148224
H        0.3992692564   -2.7247019243    2.3263737759
H        3.1928555181    0.6098623407    2.4556234744
H        0.3093224742   -2.7342625209    4.3468612706
H        1.5479746447   -1.0756903874    8.0699381772
H        3.0998822190    0.5991728256    4.4867138142
22   

C        1.9088820108   -1.0314845955   -0.1735917373
C        0.9646770461   -1.8224473424    0.4811013110
C        2.7932627901   -0.2547485630    0.5746720238
C        0.9965261134   -2.1238574967    6.2350906429
C        0.9020282450   -1.8333067174    1.8797617453
C        2.7297196494   -0.2660496969    1.9729326982
C        1.0591569178   -2.1112358131    4.8371189776
C        1.5965069909   -1.1024142923    6.9724765003
C        2.3147993319   -0.0581866154    4.9167786036
C        1.7727584943   -1.0465709340    2.6575503920
C        1.7304121220   -1.0857127287    4.1448657394
C        2.2562172924   -0.0640216045    6.3150451912
Cl       2.9928659780    1.2234309130    7.2293844222
H        1.9577472228   -1.0234099434   -1.2588459630
H        0.2738192311   -2.4296643009   -0.0968289177
H        3.5382757032    0.3546376325    0.0710254640
H        0.4825452168   -2.9319184409    6.7480714688
H        0.1365863085   -2.4511878540    2.3334195222
H        3.4604069207    0.3305926603    2.5061849744
H        0.5938162946   -2.9380281229    4.3139983781
H        1.5498666906   -1.1085171249    8.0574287010
H        2.8100501117    0.7856810399    4.4526750146
22   

C        1.9067454655   -1.0300724973   -0.1593741434
C        0.8725373548   -1.7061716434    0.4920847476
C        2.8818239036   -0.3680875616    0.5902994802
C        1.1245264502   -2.1862752554    6.2345777747
C        0.8132419300   -1.7187954840    1.8907538739
C        2.8211127530   -0.3809058374    1.9888182003
C        1.1819078091   -2.1745217916    4.8364758645
C        1.6113104430   -1.0979221394    6.9631943836
C        2.2089706762    0.0081458576    4.8999766581
C        1.7828766061   -1.0524508686    2.6617666373
C        1.7291517812   -1.0788016672    4.1451978944
C        2.1547368980    0.0039509681    6.2984904586
Cl       2.7538908210    1.3665741252    7.2039517352
H        1.9534592148   -1.0203318062   -1.2447035224
H        0.1111736250   -2.2201881354   -0.0876332162
H        3.6915560912    0.1531028172    0.0875959324
H        0.7046366829   -3.0431312194    6.7539401621
H       -0.0107308851   -2.2374935217    2.3695900893
H        3.6046668351    0.1226085972    2.5456909151
H        0.8135445541   -3.0389459876    4.2936855090
H        1.5685523252   -1.1024611657    8.0483081328
H        2.6144686786    0.8850535193    4.4072663071
22   

C        1.9148347036   -1.0233615845   -0.1566800876
C        0.8042233587   -1.5818682005    0.4829403560
C        2.9589466543   -0.4878053371    0.6033783075
C        1.2366796190   -2.2518681671    6.2268471914
C        0.7396445688   -1.6059214805    1.8811715718
C        2.8925785440   -0.5122114214    2.0016256054
C        1.2895635568   -2.2390873059    4.8286056275
C        1.6090495362   -1.1140092756    6.9497163565
C        2.0867041173    0.0414969574    4.8814631861
C        1.7849248260   -1.0753860717    2.6565474456
C        1.7099504169   -1.0893605757    4.1386937575
C        2.0364602291    0.0366800650    6.2802072015
Cl       2.5013356271    1.4541906735    7.1800897965
H        1.9657834421   -1.0042035118   -1.2416914316
H       -0.0107436363   -1.9942216280   -0.1050619009
H        3.8233558378   -0.0537745572    0.1090024090
H        0.9102300021   -3.1460498309    6.7503922489
H       -0.1334268482   -2.0303697400    2.3675037396
H        3.7142216090   -0.1010318876    2.5803700446
H        1.0120405234   -3.1305844520    4.2741609996
H        1.5698552324   -1.1189198102    8.0349595080
H        2.4111829154    0.9424915883    4.3709226023
22   

C        1.9206993490   -1.0215347967   -0.1551111674
C        0.7461788213   -1.4430895501    0.4766870722
C        3.0222754101   -0.6282540718    0.6119908087
C        1.3713732438   -2.2834174323    6.2362282974
C        0.6758037405   -1.4740365758    1.8745322644
C        2.9496765410   -0.6598414616    2.0098415187
C        1.4162901045   -2.2798422720    4.8376390444
C        1.6161309217   -1.1020048934    6.9447876903
C        1.9521563430    0.0774595684    4.8619042319
C        1.7803512185   -1.0916433592    2.6528279085
C        1.6962753894   -1.0956750306    4.1372228300
C        1.9094780508    0.0825682577    6.2609724290
Cl       2.2213967075    1.5518276905    7.1436088427
H        1.9762062186   -0.9964861896   -1.2397771536
H       -0.1128229665   -1.7429914827   -0.1167173143
H        3.9343690505   -0.2973219385    0.1235730782
H        1.1506315475   -3.2030358578    6.7708374811
H       -0.2409781815   -1.7914943157    2.3625712912
H        3.8074776937   -0.3535330686    2.6014562214
H        1.2378700529   -3.1988156411    4.2868628363
H        1.5831793285   -1.0994123247    8.0302452418
H        2.1799735769    0.9975976390    4.3329681917
22   

C        1.9192678403   -1.0250348496   -0.1524263817
C        0.6987457706   -1.2834861205    0.4806388071
C        3.0676766322   -0.7967646125    0.6134053884
C        1.5297347185   -2.3117807123    6.2465354095
C        0.6289114095   -1.3160455670    1.8785134933
C        2.9950180428   -0.8299385946    2.0112568480
C        1.5732877159   -2.3113380562    4.8478669039
C        1.6226722818   -1.1039192365    6.9472270298
C        1.8045146152    0.0953267194    4.8563782322
C        1.7783251658   -1.0974185842    2.6530004908
C        1.7017855179   -1.1057792903    4.1420287539
C        1.7621380924    0.1042939267    6.2554908754
Cl       1.8846809693    1.6069853390    7.1283616932
H        1.9746030796   -0.9986983181   -1.2370704484
H       -0.1953826427   -1.4561284086   -0.1115540139
H        4.0157256628   -0.5922389319    0.1241746837
H        1.4267052587   -3.2484958517    6.7870784078
H       -0.3197954839   -1.5094285419    2.3706307398
H        3.8862784687   -0.6497371091    2.6053610445
H        1.5090693333   -3.2471148364    4.3001056129
H        1.5900361442   -1.0984911801    8.0326835574
H        1.9153677096    1.0314085257    4.3178790979
22   

C        1.9066783473   -1.0356912424   -0.1520775597
C        0.6687636594   -1.1029637333    0.4965345608
C        3.0863557936   -0.9889251640    0.5989535522
C        1.7064707027   -2.3235023869    6.2452077030
C        0.6122555796   -1.1235409782    1.8952476467
C        3.0269456059   -1.0096383090    1.9976995045
C        1.7616368403   -2.3127821488    4.8469766542
C        1.6219411888   -1.1165076214    6.9487184175
C        1.6479340912    0.1025515374    4.8614924546
C        1.7912002247   -1.0771869095    2.6538733323
C        1.7327031871   -1.0985959668    4.1458371986
C        1.5923062878    0.1013520264    6.2602018696
Cl       1.4870806663    1.6033678389    7.1364862791
H        1.9518029861   -1.0193162900   -1.2373898138
H       -0.2485465326   -1.1387932805   -0.0841815280
H        4.0485167485   -0.9360990448    0.0975347947
H        1.7292481534   -3.2671150920    6.7830871566
H       -0.3479404945   -1.1751176875    2.4002994388
H        3.9421800178   -0.9727445860    2.5814124517
H        1.8273113460   -3.2465225921    4.2958792897
H        1.5788644951   -1.1189558488    8.0338218940
H        1.6251472695    1.0456660924    4.3243209376
22   

C        1.8952458814   -1.0343612962   -0.1523753279
C        0.6718857297   -0.9045601160    0.5139937428
C        3.0785252120   -1.1721059241    0.5815561657
C        1.8839049575   -2.3111930811    6.2347644910
C        0.6335979653   -0.9101546355    1.9134280494
C        3.0377569149   -1.1773386965    1.9811261131
C        1.9557371563   -2.2794311863    4.8376350007
C        1.6203240463   -1.1350752699    6.9461785738
C        1.4988234089    0.0953949413    4.8689439543
C        1.8176335017   -1.0384836922    2.6556548496
C        1.7730643706   -1.0726723899    4.1455982304
C        1.4249511229    0.0724466445    6.2666173402
Cl       1.0895591319    1.5344828637    7.1525981084
H        1.9260043069   -1.0305600559   -1.2383071764
H       -0.2486018076   -0.8017472558   -0.0535580417
H        4.0290058142   -1.2760269055    0.0660552082
H        2.0296003857   -3.2478020363    6.7655875118
H       -0.3165104613   -0.8163223614    2.4313504416
H        3.9559622388   -1.2868144925    2.5508247073
H        2.1520451296   -3.1911141687    4.2807017416
H        1.5627595136   -1.1542747867    8.0304432640
H        1.3444004569    1.0303095611    4.3392565090
22   

C        1.8884049318   -1.0376189973   -0.1529688883
C        0.6997984820   -0.7361878038    0.5200117792
C        3.0439436363   -1.3410535726    0.5746733007
C        2.0399522848   -2.2666778245    6.2409709814
C        0.6688184309   -0.7352966724    1.9196055650
C        3.0108444801   -1.3396808814    1.9744145574
C        2.1151954163   -2.2309898005    4.8441296267
C        1.6241933536   -1.1319003737    6.9462049651
C        1.3575996026    0.0652586773    4.8632905696
C        1.8270618177   -1.0272932529    2.6580241702
C        1.7857186150   -1.0595287318    4.1437948490
C        1.2792651249    0.0377310711    6.2605666778
Cl       0.7536850869    1.4476908437    7.1385362227
H        1.9131807297   -1.0390195715   -1.2390603880
H       -0.2004533301   -0.5061932756   -0.0426959347
H        3.9672164959   -1.5785173645    0.0539791807
H        2.2998628116   -3.1754843180    6.7764607294
H       -0.2585159498   -0.5118928438    2.4390065452
H        3.9097150021   -1.5762149060    2.5361504865
H        2.4256390780   -3.1152293773    4.2950874425
H        1.5631901697   -1.1546507498    8.0302129064
H        1.0886952217    0.9730051732    4.3322489583
22   

C        1.8896781179   -1.0422970170   -0.1568786773
C        0.7456892370   -0.6022753102    0.5155986655
C        2.9934846777   -1.4960026698    0.5714638056
C        2.1733414964   -2.2324644413    6.2549062648
C        0.7071759389   -0.6144591702    1.9149359956
C        2.9531190436   -1.5079638703    1.9708843744
C        2.2346862575   -2.2058628176    4.8571913082
C        1.6387001135   -1.1435481374    6.9508944140
C        1.2273487205   -0.0092910714    4.8568200938
C        1.8123664720   -1.0628142956    2.6584295290
C        1.7677294487   -1.0902956136    4.1416390383
C        1.1625826318   -0.0282543281    6.2548443389
Cl       0.4950835050    1.3279269158    7.1211242481
H        1.9202263763   -1.0328699679   -1.2427841485
H       -0.1153023441   -0.2537670066   -0.0476391083
H        3.8838237890   -1.8377414910    0.0514118454
H        2.5370618969   -3.0998295367    6.7986134574
H       -0.1919336919   -0.2829555483    2.4256448914
H        3.8195619176   -1.8544663982    2.5259740322
H        2.6378745293   -3.0610535614    4.3231116756
H        1.5887040198   -1.1595055203    8.0355878555
H        0.8631033674    0.8642326535    4.3257491076
22   

C        1.8912043151   -1.0397526627   -0.1596783278
C        0.8004876849   -0.4813492482    0.5107397473
C        2.9272496603   -1.6258508413    0.5711047408
C        2.2884847210   -2.1603335473    6.2804746885
C        0.7459671063   -0.5101844849    1.9093087604
C        2.8711038749   -1.6545750788    1.9696351859
C        2.3269167383   -2.1565655716    4.8817038118
C        1.6531979985   -1.1209385515    6.9648801702
C        1.0986370630   -0.0795041834    4.8563782605
C        1.7773603220   -1.1009347000    2.6615884441
C        1.7289932977   -1.1180829508    4.1453811169
C        1.0564479060   -0.0760714658    6.2553311732
Cl       0.2718849595    1.2261950131    7.1063034012
H        1.9342350761   -1.0167369539   -1.2449602447
H       -0.0083647746   -0.0265062096   -0.0539704073
H        3.7804978531   -2.0549486824    0.0536118770
H        2.7496656163   -2.9731100388    6.8345091463
H       -0.1216781376   -0.0839344389    2.4023366763
H        3.7005481258   -2.0959807562    2.5122744055
H        2.8109282551   -2.9834445766    4.3721738421
H        1.6213026813   -1.1193396504    8.0503763112
H        0.6480287802    0.7548894508    4.3302408880
22   

C        1.8980544478   -1.0331292034   -0.1731794227
C        0.8839383029   -0.3551800067    0.5031449237
C        2.8495412989   -1.7490201951    0.5530045731
C        2.4093028280   -2.0737046011    6.2947489105
C        0.8195491796   -0.3959394278    1.9010808049
C        2.7840359897   -1.7892767949    1.9507152325
C        2.4309130914   -2.0844159633    4.8956159343
C        1.6731216278   -1.1039916775    6.9762151782
C        0.9868920140   -0.1583878721    4.8624002592
C        1.7593974203   -1.1220681199    2.6572113154
C        1.7116182910   -1.1353078037    4.1449256150
C        0.9605244532   -0.1411370104    6.2616279932
Cl       0.0522226642    1.0823466604    7.1068200196
H        1.9483931971   -1.0008394693   -1.2579142918
H        0.1398798408    0.2038813418   -0.0571119217
H        3.6478555060   -2.2703441407    0.0325136044
H        2.9640298950   -2.8234062006    6.8519825726
H       -0.0010178235    0.1319929946    2.3722054825
H        3.5657095529   -2.3344463045    2.4659453469
H        3.0013192893   -2.8699846569    4.4143485899
H        1.6540045544   -1.0917496093    8.0619489976
H        0.4427102322    0.6293877848    4.3567423835
22   

C        1.8784172010   -1.0458569599   -0.1862066305
C        1.0060271925   -0.2077082502    0.5047600906
C        2.7142781545   -1.9009917936    0.5282931382
C        2.5507678367   -1.9574362172    6.3014593324
C        0.9693463852   -0.2243208145    1.9043124404
C        2.6769274435   -1.9169263760    1.9274394259
C        2.5905390630   -1.9439128906    4.9026564373
C        1.6757431131   -1.1164500779    6.9865284088
C        0.8840314179   -0.2522162839    4.8756588396
C        1.8012636599   -1.0769674580    2.6562394865
C        1.7601218999   -1.0926428854    4.1478339143
C        0.8386673995   -0.2601985275    6.2744908950
Cl      -0.2587672133    0.7949710860    7.1225291466
H        1.9065146522   -1.0326063348   -1.2721484278
H        0.3512007964    0.4618654240   -0.0456730035
H        3.3973494092   -2.5576184760   -0.0030176293
H        3.2037849959   -2.6253843477    6.8561989420
H        0.2653820387    0.4556820490    2.3649123688
H        3.3550120880   -2.6070208984    2.4112649949
H        3.2944073247   -2.6238054808    4.4415912702
H        1.6420115849   -1.1241000520    8.0719522399
H        0.2064463737    0.4373913929    4.3918091119
