22   

C        1.8654079803   -1.0660940916   -0.1744316791
C        1.1522242797   -0.0843897413    0.5133809768
C        2.5628434614   -2.0384113565    0.5420548379
C        2.6657757835   -1.8148234006    6.3045494058
C        1.1394482465   -0.0730449816    1.9132880421
C        2.5495613806   -2.0259469601    1.9417602301
C        2.7295918291   -1.7829406733    4.9070282501
C        1.6636552976   -1.1135360554    6.9758558572
C        0.7918050042   -0.3553005731    4.8549482082
C        1.8458659547   -1.0347861920    2.6605102600
C        1.8023724922   -1.0437055815    4.1483916348
C        0.7214039019   -0.3824891855    6.2524946134
Cl      -0.5422083901    0.4823620280    7.0841137370
H        1.8746646977   -1.0752777922   -1.2607356552
H        0.6073056685    0.6756738216   -0.0392739314
H        3.1114634161   -2.8117717762    0.0120313471
H        3.3994025364   -2.3839476990    6.8686179508
H        0.5858681536    0.7243779091    2.3946061959
H        3.0826794428   -2.8219975430    2.4475012244
H        3.5384772540   -2.3277995128    4.4348705322
H        1.6101837572   -1.1359645884    8.0602778365
H        0.0182907249    0.2009938252    4.3405297544
22   

C        1.8817390474   -1.0657848123   -0.1571826506
C        1.2826669007   -0.0051075178    0.5261874502
C        2.4482201227   -2.1209364038    0.5616143050
C        2.7324628255   -1.6791316684    6.3070251586
C        1.2513589074    0.0003645067    1.9257567691
C        2.4167616750   -2.1137989143    1.9611918809
C        2.7884021354   -1.6678720082    4.9088814893
C        1.6576283251   -1.0792111472    6.9682458343
C        0.6999764095   -0.4606602729    4.8379388279
C        1.8215456537   -1.0507702391    2.6664203553
C        1.7750222552   -1.0547873246    4.1503950299
C        0.6368229984   -0.4682749088    6.2360808759
Cl      -0.7093876266    0.2722298877    7.0576379297
H        1.9054052204   -1.0707803920   -1.2432910234
H        0.8428490105    0.8184813173   -0.0290449562
H        2.9088221961   -2.9510451730    0.0336702459
H        3.5263904441   -2.1513809405    6.8787829216
H        0.7943990552    0.8456793866    2.4299466463
H        2.8442590067   -2.9573918169    2.4930445875
H        3.6417561716   -2.1249657174    4.4185073475
H        1.6096847865   -1.0859481432    8.0531315104
H       -0.1165351922   -0.0001385199    4.2926729574
22   

C        1.8897067236   -1.0596694269   -0.1503392831
C        1.4065239827    0.0545565804    0.5422179039
C        2.3238336126   -2.1843980459    0.5576541335
C        2.7969501520   -1.5620470208    6.2942062288
C        1.3560480750    0.0424516740    1.9411845361
C        2.2730836434   -2.1946913824    1.9567398661
C        2.8332146591   -1.5736498270    4.8954165028
C        1.6720169708   -1.0636528052    6.9590704249
C        0.6272973499   -0.5893235661    4.8319910196
C        1.7841173881   -1.0842979898    2.6639067469
C        1.7452959146   -1.0927938592    4.1473274417
C        0.5833069835   -0.5743048746    6.2308788798
Cl      -0.8177390288    0.0481657033    7.0584147508
H        1.9289422689   -1.0509085819   -1.2359704628
H        1.0731108890    0.9317385991   -0.0049442565
H        2.6990716326   -3.0516702979    0.0219489126
H        3.6434983607   -1.9361656905    6.8630873171
H        0.9914999139    0.9190089985    2.4683165051
H        2.6050207874   -3.0769894305    2.4955173912
H        3.7160009485   -1.9487910579    4.3863888117
H        1.6391621815   -1.0522485727    8.0444766615
H       -0.2259851811   -0.2151726188    4.2755080604
22   

C        1.8855022697   -1.0596065928   -0.1460422944
C        1.5405661806    0.1011446645    0.5541187748
C        2.1698046804   -2.2372125860    0.5533972036
C        2.8303651104   -1.4267490063    6.2874853091
C        1.4770951358    0.0822081567    1.9524893762
C        2.1058252271   -2.2540376537    1.9519649311
C        2.8579240961   -1.4524009743    4.8886683277
C        1.6604419308   -1.0480184821    6.9551465843
C        0.5543651048   -0.7193771473    4.8311527407
C        1.7495135613   -1.0986058406    2.6620860418
C        1.7150827967   -1.1100584424    4.1483505031
C        0.5185944304   -0.6907295014    6.2301414915
Cl      -0.9352220598   -0.2112139087    7.0617294127
H        1.9354553956   -1.0456446431   -1.2311781778
H        1.3252839071    1.0185036551    0.0136596213
H        2.4409629952   -3.1388924327    0.0117402571
H        3.7173676674   -1.6963661674    6.8538455962
H        1.2199667333    0.9881250435    2.4936317113
H        2.3276493648   -3.1699237107    2.4917894835
H        3.7693697843   -1.7340222055    4.3693822490
H        1.6340816463   -1.0255559515    8.0405557239
H       -0.3318883833   -0.4409184983    4.2696066820
22   

C        1.8867648247   -1.0679400599   -0.1450570912
C        1.7113623559    0.1298650484    0.5563511931
C        2.0049061451   -2.2746457960    0.5532626971
C        2.8667302514   -1.2676091659    6.2912661638
C        1.6518194828    0.1191497109    1.9550143484
C        1.9449497616   -2.2828237747    1.9521272052
C        2.9005042663   -1.2904607791    4.8925173744
C        1.6558375323   -1.0417379447    6.9557740196
C        0.5214062305   -0.8600979478    4.8288795673
C        1.7601612421   -1.0886231026    2.6611787249
C        1.7249479228   -1.0963011851    4.1517417739
C        0.4787517417   -0.8353057138    6.2278145376
Cl      -1.0266969023   -0.5468256179    7.0557074932
H        1.9335225708   -1.0606878126   -1.2304003637
H        1.6236349981    1.0685305085    0.0167272887
H        2.1441582401   -3.2053447197    0.0107111849
H        3.7794910839   -1.4220112284    6.8598276798
H        1.5225452984    1.0494944069    2.5004497458
H        2.0392040611   -3.2192099332    2.4942905202
H        3.8393014863   -1.4573401912    4.3722401055
H        1.6241534751   -1.0222412414    8.0410977719
H       -0.3898110275   -0.6969842750    4.2618173213
22   

C        1.8770479217   -1.0790291053   -0.1465643423
C        1.9016239394    0.1358288144    0.5471119663
C        1.8125648167   -2.2849798811    0.5601396588
C        2.8893632141   -1.0907735604    6.3028693094
C        1.8618624204    0.1430628137    1.9465281020
C        1.7729046993   -2.2749138920    1.9597074198
C        2.9384748042   -1.0969406571    4.9043882578
C        1.6527462333   -1.0437506055    6.9567087086
C        0.5233633263   -1.0093516660    4.8197192299
C        1.7974820640   -1.0625048667    2.6608618016
C        1.7546367197   -1.0562277842    4.1535174278
C        0.4647954247   -1.0028532230    6.2182965137
Cl      -1.0740685116   -0.9443517159    7.0328368195
H        1.9075195709   -1.0859042340   -1.2324887951
H        1.9510867091    1.0734274825    0.0008188237
H        1.7928036719   -3.2292925455    0.0236256922
H        3.8095818350   -1.1224349021    6.8794395559
H        1.8802447985    1.0852815408    2.4865289532
H        1.7222299207   -3.2105621938    2.5090050111
H        3.8954001545   -1.1333551336    4.3916877938
H        1.6087908041   -1.0387553584    8.0417682472
H       -0.3963963307   -0.9776985747    4.2438936550
22   

C        1.8731408185   -1.0909396546   -0.1472261641
C        2.0889064961    0.1088112838    0.5392730837
C        1.6243340639   -2.2681108617    0.5667836184
C        2.8687709053   -0.9165679709    6.3128431999
C        2.0583118205    0.1291716269    1.9387864214
C        1.5943226650   -2.2449187685    1.9664021629
C        2.9311753123   -0.9102793640    4.9149019638
C        1.6320426642   -1.0465396381    6.9548325165
C        0.5293714746   -1.1658416565    4.8070943245
C        1.8187629009   -1.0492129978    2.6618444988
C        1.7598458739   -1.0256666352    4.1515139173
C        0.4575634549   -1.1734169809    6.2050126831
Cl      -1.0810103649   -1.3420722791    7.0046058432
H        1.8958204179   -1.1078978460   -1.2332309286
H        2.2773628521    1.0251400288   -0.0128043765
H        1.4528565959   -3.2001537805    0.0358733222
H        3.7792001662   -0.8234468763    6.8982350995
H        2.2185213176    1.0616584083    2.4720989935
H        1.3981962094   -3.1585261987    2.5201469792
H        3.8896242034   -0.8171912851    4.4123534677
H        1.5778622874   -1.0526420954    8.0394235088
H       -0.3804250355   -1.2668500702    4.2234964618
22   

C        1.8694958184   -1.0925272974   -0.1504212057
C        2.2486693414    0.0630296530    0.5404304193
C        1.4553740245   -2.2245707688    0.5591924915
C        2.8387930398   -0.7581388471    6.3065432113
C        2.2164639975    0.0840298570    1.9398600882
C        1.4237894612   -2.2013184596    1.9587354528
C        2.8980574286   -0.7532402354    4.9084903479
C        1.6299327789   -1.0399293384    6.9522646649
C        0.5484457358   -1.3134690268    4.8079693957
C        1.8127546079   -1.0512419071    2.6610595672
C        1.7496278639   -1.0200745335    4.1461833151
C        0.4805134666   -1.3207085074    6.2060281819
Cl      -1.0228575248   -1.6787260341    7.0102437458
H        1.8934626672   -1.1097390363   -1.2363948722
H        2.5646252361    0.9455611439   -0.0084447601
H        1.1572603118   -3.1220650359    0.0247625524
H        3.7310322636   -0.5472814036    6.8893632951
H        2.5010925728    0.9860805915    2.4734714021
H        1.1015122866   -3.0826588459    2.5055733950
H        3.8385011801   -0.5460171120    4.4061712932
H        1.5785994463   -1.0456919608    8.0369964350
H       -0.3444820661   -1.5316009745    4.2305383138
22   

C        1.8715490704   -1.0859513285   -0.1512512050
C        2.3880319782    0.0066942277    0.5515155375
C        1.3148687329   -2.1618596955    0.5467514679
C        2.8069731838   -0.6236055026    6.3006282489
C        2.3490331427    0.0215750458    1.9508241655
C        1.2761980174   -2.1451845033    1.9461502430
C        2.8568930247   -0.6267729449    4.9022175546
C        1.6425383834   -1.0328790888    6.9583086671
C        0.5855666671   -1.4481498899    4.8249213418
C        1.7967097633   -1.0559966020    2.6642813309
C        1.7438329276   -1.0338390520    4.1472658351
C        0.5277223538   -1.4477027675    6.2233732913
Cl      -0.9228400485   -1.9585180768    7.0420157382
H        1.9013356355   -1.0983403781   -1.2371479749
H        2.8166405916    0.8462335018    0.0116814799
H        0.9133908038   -3.0124031061    0.0032576786
H        3.6731805640   -0.3070615826    6.8748345232
H        2.7411956361    0.8809672603    2.4861583686
H        0.8492525995   -2.9910467842    2.4765707972
H        3.7688368894   -0.3207563597    4.3983249237
H        1.5988186359   -1.0323091653    8.0433892874
H       -0.2880359245   -1.7632585827    4.2634450951
22   

C        1.9239869996   -1.0574163159   -0.1569320449
C        1.4077176214   -2.1643776284    0.5207298553
C        2.3712244762    0.0508093293    0.5661460937
C        0.6237510258   -1.7473945192    6.2200375217
C        1.3402876313   -2.1631384872    1.9190909397
C        2.3038659576    0.0506314944    1.9644159110
C        0.6905682263   -1.7505492517    4.8223177582
C        1.5760799464   -1.0456474276    6.9636230205
C        2.6567436867   -0.3549020014    4.9160455830
C        1.7917720734   -1.0585517889    2.6638525530
C        1.7058053476   -1.0507126246    4.1459949538
C        2.5968403984   -0.3472816315    6.3143269603
Cl       3.7912888584    0.5208881135    7.2390688679
H        1.9761292773   -1.0577052986   -1.2420578683
H        1.0610771393   -3.0289365180   -0.0381415651
H        2.7670596584    0.9163895318    0.0425976501
H       -0.1706358493   -2.2877281093    6.7272247240
H        0.9504811772   -3.0433337577    2.4196610823
H        2.6373898359    0.9341553462    2.4989619414
H       -0.0706762671   -2.2883851546    4.2666364840
H        1.5284376250   -1.0406387935    8.0485327406
H        3.4721076554    0.1759635790    4.4369622431
22   

C        1.9156361997   -1.0542926523   -0.1662577627
C        1.2709750145   -2.0915249759    0.5077696645
C        2.4950669272   -0.0157974158    0.5625103267
C        0.7185245304   -1.8558909719    6.2391497569
C        1.2098223391   -2.0926732371    1.9065387034
C        2.4335936261   -0.0179086966    1.9609020437
C        0.7809404749   -1.8549160517    4.8411146162
C        1.5880797737   -1.0544029399    6.9797540034
C        2.5811413098   -0.2583024940    4.9273789039
C        1.8001875817   -1.0645926496    2.6658985752
C        1.7043515320   -1.0469758786    4.1511526046
C        2.5246971733   -0.2539979142    6.3257398523
Cl       3.6247264158    0.7363880772    7.2451330418
H        1.9627724380   -1.0532251007   -1.2516172528
H        0.8175666753   -2.9025483141   -0.0549558473
H        2.9887105619    0.8006379664    0.0430808544
H       -0.0102989547   -2.4793367756    6.7494624341
H        0.7135430506   -2.9328599313    2.3769511813
H        2.8717477636    0.8285171096    2.4764720811
H        0.0704108747   -2.4803820036    4.3141089235
H        1.5429126047   -1.0524909335    8.0647836431
H        3.3463404917    0.3552196583    4.4682286359
22   

C        1.9066897498   -1.0512421118   -0.1814875847
C        1.1046496723   -1.9741638549    0.4866264873
C        2.6490889891   -0.1307510570    0.5549118014
C        0.8516739415   -1.9949098167    6.2463883528
C        1.0447041234   -1.9772421068    1.8855660477
C        2.5889504800   -0.1340584125    1.9532761314
C        0.9131400034   -1.9899804494    4.8482249835
C        1.5934333492   -1.0745799447    6.9849147079
C        2.4552891282   -0.1477294797    4.9289771420
C        1.7831880809   -1.0595884639    2.6581512216
C        1.7155819753   -1.0676806849    4.1487511403
C        2.3985610283   -0.1469638056    6.3273484663
Cl       3.3294168448    1.0075404294    7.2424803264
H        1.9528253607   -1.0493394090   -1.2668931233
H        0.5232280159   -2.6946606624   -0.0815954933
H        3.2768697034    0.5920529264    0.0415463668
H        0.2237883492   -2.7183099296    6.7590148408
H        0.3992692476   -2.7247019149    2.3263737800
H        3.1928555132    0.6098623423    2.4556234434
H        0.3093224540   -2.7342625157    4.3468612859
H        1.5479747245   -1.0756904073    8.0699381725
H        3.0998822156    0.5991728335    4.4867137958
22   

C        1.9088870698   -1.0314900713   -0.1735914032
C        0.9646791174   -1.8224495086    0.4811013841
C        2.7932693510   -0.2547559017    0.5746725554
C        0.9965261354   -2.1238572840    6.2350906455
C        0.9020282450   -1.8333067174    1.8797617453
C        2.7297242632   -0.2660550625    1.9729331528
C        1.0591569178   -2.1112358131    4.8371189776
C        1.5965069592   -1.1024138851    6.9724763303
C        2.3147992055   -0.0581864109    4.9167782905
C        1.7727584943   -1.0465709340    2.6575503920
C        1.7304121220   -1.0857127287    4.1448657394
C        2.2562171792   -0.0640211990    6.3150448777
Cl       2.9928657395    1.2234315184    7.2293839167
H        1.9577537133   -1.0234168870   -1.2588455732
H        0.2738206723   -2.4296656048   -0.0968289970
H        3.5382849608    0.3546271928    0.0710262324
H        0.4825453098   -2.9319181906    6.7480716000
H        0.1365844275   -2.4511855264    2.3334195652
H        3.4604129003    0.3305851163    2.5061860518
H        0.5938164027   -2.9380281460    4.3139982864
H        1.5498666623   -1.1085165490    8.0574285326
H        2.8100497508    0.7856811115    4.4526741357
22   

C        1.9067514217   -1.0300807747   -0.1593737705
C        0.8725398289   -1.7061749507    0.4920848188
C        2.8818315628   -0.3680985388    0.5903000777
C        1.1245268823   -2.1862751664    6.2345777978
C        0.8132419300   -1.7187954840    1.8907538739
C        2.8211181005   -0.3809137402    1.9888187260
C        1.1819078091   -2.1745217916    4.8364758645
C        1.6113113811   -1.0979220935    6.9631942069
C        2.2089713445    0.0081456989    4.8999762864
C        1.7828766061   -1.0524508686    2.6617666373
C        1.7291517812   -1.0788016672    4.1451978944
C        2.1547379843    0.0039508735    6.2984900999
Cl       2.7538926630    1.3665738345    7.2039511698
H        1.9534668737   -1.0203423439   -1.2447030963
H        0.1111754349   -2.2201902459   -0.0876333336
H        3.6915668678    0.1530872359    0.0875967785
H        0.7046370985   -3.0431310164    6.7539403617
H       -0.0107329693   -2.2374902394    2.3695900905
H        3.6046735481    0.1225979094    2.5456920829
H        0.8135442095   -3.0389458243    4.2936854641
H        1.5685535948   -1.1024610663    8.0483079688
H        2.6144696165    0.8850529205    4.4072653118
22   

C        1.9148398344   -1.0233710665   -0.1566798493
C        0.8042254814   -1.5818719926    0.4829403927
C        2.9589532823   -0.4878178590    0.6033786864
C        1.2366798778   -2.2518680884    6.2268472018
C        0.7396445688   -1.6059214805    1.8811715718
C        2.8925832059   -0.5122203605    2.0016259603
C        1.2895635568   -2.2390873059    4.8286056275
C        1.6090501731   -1.1140092113    6.9497162352
C        2.0867047872    0.0414968058    4.8814629371
C        1.7849248260   -1.0753860717    2.6565474456
C        1.7099504169   -1.0893605757    4.1386937575
C        2.0364611167    0.0366799966    6.2802069648
Cl       2.5013371407    1.4541904777    7.1800894369
H        1.9657900283   -1.0042156139   -1.2416911703
H       -0.0107421035   -1.9942240645   -0.1050619979
H        3.8233651645   -0.0537923149    0.1090029083
H        0.9102301484   -3.1460496498    6.7503923657
H       -0.1334286710   -2.0303660389    2.3675037097
H        3.7142275088   -0.1010438211    2.5803707834
H        1.0120402411   -3.1305843644    4.2741609935
H        1.5698560248   -1.1189196777    8.0349593916
H        2.4111839582    0.9424910996    4.3709219731
22   

C        1.9207026115   -1.0215433914   -0.1551110870
C        0.7461801825   -1.4430930248    0.4766870679
C        3.0222796252   -0.6282653583    0.6119909418
C        1.3713734511   -2.2834174287    6.2362283003
C        0.6758037405   -1.4740365758    1.8745322644
C        2.9496795276   -0.6598494839    2.0098416679
C        1.4162901045   -2.2798422720    4.8376390444
C        1.6161314737   -1.1020049323    6.9447876527
C        1.9521569046    0.0774594585    4.8619041383
C        1.7803512185   -1.0916433592    2.6528279085
C        1.6962753894   -1.0956750306    4.1372228300
C        1.9094788167    0.0825681536    6.2609723494
Cl       2.2213979785    1.5518274885    7.1436087399
H        1.9762103999   -0.9964971620   -1.2397770813
H       -0.1128219652   -1.7429937829   -0.1167173929
H        3.9343749803   -0.2973379283    0.1235732287
H        1.1506316497   -3.2030358135    6.7708375098
H       -0.2409793494   -1.7914909734    2.3625712752
H        3.8074815360   -0.3535437606    2.6014565149
H        1.2378698227   -3.1988155925    4.2868628270
H        1.5831800142   -1.0994123563    8.0302452081
H        2.1799744357    0.9975973812    4.3329679640
22   

C        1.9192689964   -1.0250400105   -0.1524263920
C        0.6987462627   -1.2834882152    0.4806387866
C        3.0676781127   -0.7967713777    0.6134053905
C        1.5297346324   -2.3117806824    6.2465354082
C        0.6289114095   -1.3160455670    1.8785134933
C        2.9950190839   -0.8299433933    2.0112568696
C        1.5732877159   -2.3113380562    4.8478669039
C        1.6226722034   -1.1039191985    6.9472270161
C        1.8045148017    0.0953267082    4.8563782124
C        1.7783251658   -1.0974185842    2.6530004908
C        1.7017855179   -1.1057792903    4.1420287539
C        1.7621381933    0.1042939382    6.2554908560
Cl       1.8846811527    1.6069853436    7.1283616734
H        1.9746045725   -0.9987049283   -1.2370704748
H       -0.1953822653   -1.4561298326   -0.1115540581
H        4.0157277500   -0.5922485297    0.1241746810
H        1.4267050646   -3.2484957968    6.7870784212
H       -0.3197958894   -1.5094265501    2.3706307417
H        3.8862798051   -0.6497434955    2.6053611081
H        1.5090693020   -3.2471148420    4.3001056251
H        1.5900359503   -1.0984911257    8.0326835412
H        1.9153680654    1.0314084865    4.3178790639
22   

C        1.9066783211   -1.0356910426   -0.1520775623
C        0.6687636440   -1.1029636426    0.4965345631
C        3.0863557708   -0.9889249640    0.5989535443
C        1.7064708166   -2.3235023793    6.2452077070
C        0.6122555796   -1.1235409782    1.8952476467
C        3.0269455988   -1.0096382157    1.9976994964
C        1.7616368403   -2.3127821488    4.8469766542
C        1.6219414238   -1.1165076087    6.9487184285
C        1.6479342428    0.1025515478    4.8614924614
C        1.7912002247   -1.0771869095    2.6538733323
C        1.7327031871   -1.0985959668    4.1458371986
C        1.5923065388    0.1013520395    6.2602018799
Cl       1.4870810765    1.6033678585    7.1364862980
H        1.9518029503   -1.0193160164   -1.2373898162
H       -0.2485465539   -1.1387931921   -0.0841815179
H        4.0485167191   -0.9360987694    0.0975347793
H        1.7292482631   -3.2671150847    6.7830871594
H       -0.3479404903   -1.1751177463    2.4002994407
H        3.9421800156   -0.9727444847    2.5814124373
H        1.8273112648   -3.2465225977    4.2958792894
H        1.5788648243   -1.1189558346    8.0338219086
H        1.6251474742    1.0456661098    4.3243209515
22   

C        1.8952465832   -1.0343561397   -0.1523752339
C        0.6718860481   -0.9045580195    0.5139937562
C        3.0785260800   -1.1720991422    0.5815563116
C        1.8839050204   -2.3111930883    6.2347644921
C        0.6335979653   -0.9101546355    1.9134280494
C        3.0377575168   -1.1773338407    1.9811262394
C        1.9557371563   -2.2794311863    4.8376350007
C        1.6203240816   -1.1350752909    6.9461785819
C        1.4988232943    0.0953949121    4.8689439676
C        1.8176335017   -1.0384836922    2.6556548496
C        1.7730643706   -1.0726723899    4.1455982304
C        1.4249510451    0.0724466085    6.2666173565
Cl       1.0895589720    1.5344827957    7.1525981504
H        1.9260052217   -1.0305534807   -1.2383070707
H       -0.2486015270   -0.8017458400   -0.0535580896
H        4.0290070207   -1.2760173226    0.0660554123
H        2.0296005474   -3.2478020305    6.7655875091
H       -0.3165106833   -0.8163243249    2.4313503905
H        3.9559629870   -1.2868080093    2.5508249123
H        2.1520451937   -3.1911141560    4.2807017436
H        1.5627596052   -1.1542748084    8.0304432733
H        1.3444002472    1.0303095236    4.3392565326
22   

C        1.8884074503   -1.0376100982   -0.1529687198
C        0.6997995510   -0.7361842078    0.5200118016
C        3.0439468650   -1.3410418532    0.5746735580
C        2.0399522357   -2.2666778524    6.2409709792
C        0.6688184309   -0.7352966724    1.9196055650
C        3.0108467598   -1.3396725488    1.9744147985
C        2.1151954163   -2.2309898005    4.8441296267
C        1.6241931897   -1.1319004310    6.9462049517
C        1.3575994189    0.0652586185    4.8632905495
C        1.8270618177   -1.0272932529    2.6580241702
C        1.7857186150   -1.0595287318    4.1437948490
C        1.2792648796    0.0377309915    6.2605666574
Cl       0.7536846809    1.4476907095    7.1385361999
H        1.9131839643   -1.0390082206   -1.2390602061
H       -0.2004524999   -0.5061908831   -0.0426960214
H        3.9672210269   -1.5785007444    0.0539795116
H        2.2998628436   -3.1754843225    6.7764607296
H       -0.2585168086   -0.5118962729    2.4390064901
H        3.9097178978   -1.5762038168    2.5361509056
H        2.4256392346   -3.1152292728    4.2950873585
H        1.5631899838   -1.1546508110    8.0302128927
H        1.0886949781    0.9730050824    4.3322489037
22   

C        1.8896824658   -1.0422870886   -0.1568782762
C        0.7456910807   -0.6022713044    0.5155987480
C        2.9934902133   -1.4959896071    0.5714644183
C        2.1733413312   -2.2324645784    6.2549062478
C        0.7071759389   -0.6144591702    1.9149359956
C        2.9531228994   -1.5079545597    1.9708849092
C        2.2346862575   -2.2058628176    4.8571913082
C        1.6386996762   -1.1435484030    6.9508943954
C        1.2273483015   -0.0092912773    4.8568200788
C        1.8123664720   -1.0628142956    2.6584295290
C        1.7677294487   -1.0902956136    4.1416390383
C        1.1625820484   -0.0282546420    6.2548443208
Cl       0.4950825221    1.3279264015    7.1211242337
H        1.9202319824   -1.0328573010   -1.2427836891
H       -0.1153009269   -0.2537643668   -0.0476392192
H        3.8838315533   -1.8377229720    0.0514126900
H        2.5370618499   -3.0998296435    6.7986134117
H       -0.1919351853   -0.2829594073    2.4256447788
H        3.8195667205   -1.8544539983    2.5259750349
H        2.6378748545   -3.0610532615    4.3231114185
H        1.5887034708   -1.1595058542    8.0355878296
H        0.8631027539    0.8642323565    4.3257490667
22   

C        1.8912094447   -1.0397438868   -0.1596777439
C        0.8004898206   -0.4813457339    0.5107399063
C        2.9272562410   -1.6258392233    0.5711056197
C        2.2884844963   -2.1603337312    6.2804746711
C        0.7459671063   -0.5101844849    1.9093087604
C        2.8711084511   -1.6545667294    1.9696359258
C        2.3269167383   -2.1565655716    4.8817038118
C        1.6531974439   -1.1209389013    6.9648801236
C        1.0986366478   -0.0795044269    4.8563782057
C        1.7773603220   -1.1009347000    2.6615884441
C        1.7289932977   -1.1180829508    4.1453811169
C        1.0564472431   -0.0760718625    6.2553311151
Cl       0.2718838236    1.2261943459    7.1063033252
H        1.9342416629   -1.0167257814   -1.2449595531
H       -0.0083632111   -0.0265039520   -0.0539704428
H        3.7805070880   -2.0549322112    0.0536131096
H        2.7496654707   -2.9731101849    6.8345091173
H       -0.1216799071   -0.0839379033    2.4023365861
H        3.7005537673   -2.0959695217    2.5122759144
H        2.8109285786   -2.9834441248    4.3721733542
H        1.6213019468   -1.1193400978    8.0503762567
H        0.6480282235    0.7548890694    4.3302407211
22   

C        1.8980588976   -1.0331233363   -0.1731789077
C        0.8839401197   -0.3551776765    0.5031450769
C        2.8495470820   -1.7490123512    0.5530053382
C        2.4093028023   -2.0737046574    6.2947489024
C        0.8195491796   -0.3959394278    1.9010808049
C        2.7840400557   -1.7892710882    1.9507158597
C        2.4309130914   -2.0844159633    4.8956159343
C        1.6731214949   -1.1039917803    6.9762151414
C        0.9868919052   -0.1583879458    4.8624001994
C        1.7593974203   -1.1220681199    2.6572113154
C        1.7116182910   -1.1353078037    4.1449256150
C        0.9605242886   -0.1411371240    6.2616279376
Cl       0.0522224005    1.0823464791    7.1068199485
H        1.9483988917   -1.0008320395   -1.2579136735
H        0.1398810858    0.2038827632   -0.0571119193
H        3.6478636597   -2.2703329845    0.0325146923
H        2.9640298998   -2.8234062363    6.8519825614
H       -0.0010194491    0.1319905445    2.3722054362
H        3.5657147813   -2.3344383466    2.4659466557
H        3.0013192048   -2.8699844976    4.4143481513
H        1.6540043529   -1.0917497442    8.0619489596
H        0.4427101287    0.6293876401    4.3567421804
22   

C        1.8784171850   -1.0458569615   -0.1862066308
C        1.0060271845   -0.2077082457    0.5047600917
C        2.7142781380   -1.9009917986    0.5282931346
C        2.5507678375   -1.9574362099    6.3014593364
C        0.9693463852   -0.2243208145    1.9043124404
C        2.6769274362   -1.9169263779    1.9274394226
C        2.5905390630   -1.9439128906    4.9026564373
C        1.6757431067   -1.1164500738    6.9865284093
C        0.8840314106   -0.2522162893    4.8756588381
C        1.8012636599   -1.0769674580    2.6562394865
C        1.7601218999   -1.0926428854    4.1478339143
C        0.8386673888   -0.2601985324    6.2744908930
Cl      -0.2587672313    0.7949710777    7.1225291380
H        1.9065146334   -1.0326063395   -1.2721484277
H        0.3512007872    0.4618654351   -0.0456729948
H        3.3973493862   -2.5576184856   -0.0030176352
H        3.2037849983   -2.6253843304    6.8561989564
H        0.2653820443    0.4556820527    2.3649123720
H        3.3550120788   -2.6070209022    2.4112649897
H        3.2944073297   -2.6238054774    4.4415912723
H        1.6420115751   -1.1241000394    8.0719522415
H        0.2064463557    0.4373913797    4.3918091146
